  
       XFOIL         Version 6.99
  
 Calculated polar for: NACA 2415                                       
  
 1 1 Reynolds number fixed          Mach number fixed         
  
 xtrf =   1.000 (top)        1.000 (bottom)  
 Mach =   0.000     Re =     0.944 e 6     Ncrit =   9.000
  
   alpha    CL        CD       CDp       CM     Top_Xtr  Bot_Xtr
  ------ -------- --------- --------- -------- -------- --------
 -18.750  -1.1015   0.09386   0.09054  -0.0416   1.0000   0.0224
 -18.500  -1.1220   0.08700   0.08359  -0.0452   1.0000   0.0225
 -18.250  -1.1449   0.07994   0.07642  -0.0490   1.0000   0.0226
 -18.000  -1.1673   0.07309   0.06945  -0.0527   1.0000   0.0227
 -17.750  -1.1894   0.06638   0.06262  -0.0564   1.0000   0.0228
 -17.500  -1.2083   0.06007   0.05619  -0.0599   1.0000   0.0229
 -17.250  -1.2234   0.05434   0.05033  -0.0632   1.0000   0.0230
 -17.000  -1.2344   0.04921   0.04508  -0.0662   1.0000   0.0232
 -16.750  -1.2414   0.04479   0.04055  -0.0687   1.0000   0.0234
 -16.500  -1.2447   0.04099   0.03663  -0.0708   1.0000   0.0237
 -16.250  -1.2449   0.03778   0.03331  -0.0725   1.0000   0.0239
 -16.000  -1.2423   0.03508   0.03050  -0.0736   1.0000   0.0241
 -15.750  -1.2375   0.03283   0.02814  -0.0743   1.0000   0.0243
 -15.500  -1.2399   0.03013   0.02535  -0.0745   1.0000   0.0246
 -15.250  -1.2412   0.02789   0.02303  -0.0741   1.0000   0.0250
 -15.000  -1.2371   0.02630   0.02138  -0.0731   1.0000   0.0254
 -14.750  -1.2303   0.02507   0.02010  -0.0717   1.0000   0.0257
 -14.500  -1.2222   0.02409   0.01906  -0.0700   1.0000   0.0261
 -14.250  -1.2145   0.02326   0.01817  -0.0679   1.0000   0.0265
 -14.000  -1.2096   0.02257   0.01743  -0.0648   1.0000   0.0269
 -13.750  -1.2093   0.02204   0.01684  -0.0605   1.0000   0.0272
 -13.500  -1.2031   0.02152   0.01627  -0.0572   1.0000   0.0276
 -13.250  -1.1957   0.02109   0.01577  -0.0539   1.0000   0.0279
 -13.000  -1.1942   0.02040   0.01504  -0.0498   1.0000   0.0284
 -12.750  -1.1897   0.01979   0.01440  -0.0460   1.0000   0.0290
 -12.500  -1.1784   0.01929   0.01388  -0.0435   0.9998   0.0296
 -12.250  -1.1483   0.01875   0.01331  -0.0445   0.9985   0.0304
 -12.000  -1.1177   0.01824   0.01275  -0.0456   0.9970   0.0312
 -11.750  -1.0860   0.01780   0.01225  -0.0469   0.9956   0.0319
 -11.500  -1.0565   0.01699   0.01143  -0.0480   0.9942   0.0331
 -11.250  -1.0243   0.01648   0.01091  -0.0494   0.9932   0.0342
 -11.000  -0.9950   0.01606   0.01046  -0.0500   0.9907   0.0352
 -10.750  -0.9634   0.01571   0.01006  -0.0511   0.9886   0.0362
 -10.500  -0.9330   0.01507   0.00942  -0.0521   0.9865   0.0379
 -10.250  -0.8999   0.01465   0.00899  -0.0535   0.9850   0.0393
 -10.000  -0.8656   0.01429   0.00860  -0.0551   0.9838   0.0407
  -9.750  -0.8318   0.01377   0.00807  -0.0567   0.9827   0.0425
  -9.500  -0.7970   0.01337   0.00768  -0.0584   0.9817   0.0444
  -9.250  -0.7691   0.01309   0.00737  -0.0585   0.9773   0.0461
  -9.000  -0.7391   0.01263   0.00692  -0.0591   0.9739   0.0484
  -8.750  -0.7075   0.01229   0.00658  -0.0600   0.9710   0.0507
  -8.500  -0.6785   0.01197   0.00624  -0.0603   0.9670   0.0530
  -8.250  -0.6533   0.01163   0.00592  -0.0598   0.9604   0.0558
  -8.000  -0.6252   0.01139   0.00565  -0.0597   0.9554   0.0583
  -7.750  -0.6008   0.01106   0.00533  -0.0590   0.9481   0.0618
  -7.500  -0.5745   0.01082   0.00508  -0.0586   0.9416   0.0649
  -7.250  -0.5487   0.01053   0.00480  -0.0582   0.9349   0.0690
  -7.000  -0.5225   0.01032   0.00458  -0.0577   0.9275   0.0729
  -6.750  -0.4961   0.01005   0.00432  -0.0574   0.9209   0.0779
  -6.250  -0.4431   0.00962   0.00388  -0.0566   0.9049   0.0890
  -6.000  -0.4164   0.00941   0.00369  -0.0563   0.8961   0.0955
  -5.500  -0.3625   0.00902   0.00331  -0.0558   0.8784   0.1110
  -5.250  -0.3355   0.00884   0.00313  -0.0555   0.8690   0.1199
  -5.000  -0.3083   0.00868   0.00298  -0.0553   0.8586   0.1295
  -4.750  -0.2811   0.00852   0.00283  -0.0551   0.8486   0.1403
  -4.500  -0.2539   0.00835   0.00268  -0.0548   0.8372   0.1527
  -4.250  -0.2266   0.00820   0.00255  -0.0546   0.8262   0.1658
  -4.000  -0.1994   0.00807   0.00242  -0.0544   0.8145   0.1797
  -3.750  -0.1720   0.00793   0.00231  -0.0542   0.8021   0.1945
  -3.500  -0.1446   0.00781   0.00221  -0.0540   0.7899   0.2105
  -3.250  -0.1173   0.00771   0.00211  -0.0538   0.7771   0.2274
  -3.000  -0.0899   0.00760   0.00202  -0.0536   0.7635   0.2454
  -2.750  -0.0625   0.00749   0.00195  -0.0535   0.7501   0.2646
  -2.500  -0.0351   0.00741   0.00187  -0.0533   0.7365   0.2847
  -2.250  -0.0078   0.00733   0.00181  -0.0531   0.7225   0.3058
  -2.000   0.0196   0.00726   0.00176  -0.0529   0.7080   0.3281
  -1.750   0.0469   0.00717   0.00171  -0.0527   0.6937   0.3523
  -1.500   0.0742   0.00709   0.00167  -0.0525   0.6796   0.3793
  -1.250   0.1012   0.00700   0.00163  -0.0523   0.6652   0.4099
  -1.000   0.1280   0.00692   0.00161  -0.0520   0.6506   0.4461
  -0.750   0.1550   0.00681   0.00159  -0.0518   0.6363   0.4857
  -0.500   0.1820   0.00673   0.00159  -0.0515   0.6225   0.5250
  -0.250   0.2089   0.00668   0.00160  -0.0513   0.6088   0.5620
   0.000   0.2357   0.00665   0.00161  -0.0510   0.5951   0.5973
   0.250   0.2629   0.00660   0.00163  -0.0507   0.5817   0.6316
   0.500   0.2899   0.00657   0.00166  -0.0505   0.5692   0.6646
   0.750   0.3167   0.00656   0.00170  -0.0501   0.5566   0.6964
   1.250   0.3705   0.00653   0.00180  -0.0494   0.5330   0.7594
   1.500   0.3970   0.00656   0.00186  -0.0490   0.5215   0.7894
   1.750   0.4237   0.00655   0.00192  -0.0486   0.5106   0.8198
   2.000   0.4501   0.00659   0.00200  -0.0481   0.5002   0.8473
   2.250   0.4763   0.00663   0.00209  -0.0475   0.4896   0.8736
   2.500   0.5026   0.00669   0.00217  -0.0469   0.4797   0.8978
   3.000   0.5550   0.00687   0.00237  -0.0458   0.4598   0.9367
   3.250   0.5816   0.00701   0.00247  -0.0453   0.4493   0.9521
   3.500   0.6116   0.00713   0.00258  -0.0456   0.4390   0.9635
   3.750   0.6431   0.00728   0.00269  -0.0463   0.4282   0.9723
   4.000   0.6740   0.00745   0.00280  -0.0468   0.4165   0.9809
   4.250   0.7115   0.00760   0.00292  -0.0489   0.4041   0.9844
   4.500   0.7499   0.00779   0.00305  -0.0512   0.3905   0.9878
   4.750   0.7872   0.00800   0.00320  -0.0533   0.3758   0.9923
   5.000   0.8264   0.00822   0.00333  -0.0558   0.3597   0.9948
   5.250   0.8636   0.00843   0.00348  -0.0579   0.3433   0.9971
   5.500   0.8990   0.00867   0.00363  -0.0597   0.3264   0.9992
   5.750   0.9255   0.00889   0.00378  -0.0596   0.3105   1.0000
   6.000   0.9453   0.00909   0.00393  -0.0580   0.2958   1.0000
   6.250   0.9649   0.00931   0.00408  -0.0564   0.2808   1.0000
   6.500   0.9845   0.00955   0.00425  -0.0548   0.2659   1.0000
   6.750   1.0040   0.00981   0.00444  -0.0532   0.2508   1.0000
   7.000   1.0235   0.01009   0.00465  -0.0516   0.2354   1.0000
   7.250   1.0430   0.01038   0.00487  -0.0500   0.2201   1.0000
   7.500   1.0625   0.01070   0.00511  -0.0484   0.2049   1.0000
   7.750   1.0823   0.01103   0.00537  -0.0469   0.1901   1.0000
   8.000   1.1024   0.01139   0.00565  -0.0455   0.1756   1.0000
   8.250   1.1227   0.01176   0.00595  -0.0442   0.1618   1.0000
   8.500   1.1429   0.01215   0.00627  -0.0429   0.1486   1.0000
   8.750   1.1631   0.01255   0.00661  -0.0417   0.1364   1.0000
   9.000   1.1830   0.01298   0.00696  -0.0404   0.1250   1.0000
   9.250   1.2023   0.01342   0.00735  -0.0390   0.1143   1.0000
   9.500   1.2220   0.01383   0.00772  -0.0377   0.1056   1.0000
   9.750   1.2411   0.01425   0.00811  -0.0363   0.0976   1.0000
  10.000   1.2580   0.01471   0.00853  -0.0345   0.0903   1.0000
  10.250   1.2739   0.01519   0.00897  -0.0326   0.0837   1.0000
  10.500   1.2910   0.01564   0.00941  -0.0309   0.0784   1.0000
  10.750   1.3066   0.01618   0.00993  -0.0291   0.0731   1.0000
  11.000   1.3233   0.01669   0.01044  -0.0275   0.0687   1.0000
  11.250   1.3387   0.01728   0.01102  -0.0258   0.0645   1.0000
  11.500   1.3547   0.01785   0.01160  -0.0243   0.0610   1.0000
  11.750   1.3689   0.01853   0.01228  -0.0225   0.0576   1.0000
  12.000   1.3846   0.01915   0.01292  -0.0211   0.0549   1.0000
  12.250   1.3970   0.01998   0.01374  -0.0193   0.0519   1.0000
  12.500   1.4123   0.02066   0.01446  -0.0180   0.0498   1.0000
  12.750   1.4253   0.02150   0.01531  -0.0165   0.0476   1.0000
  13.000   1.4358   0.02253   0.01635  -0.0148   0.0455   1.0000
  13.250   1.4499   0.02336   0.01723  -0.0137   0.0440   1.0000
  13.500   1.4614   0.02439   0.01829  -0.0123   0.0424   1.0000
  13.750   1.4695   0.02570   0.01963  -0.0108   0.0407   1.0000
  14.000   1.4810   0.02682   0.02080  -0.0097   0.0395   1.0000
  14.250   1.4916   0.02804   0.02207  -0.0087   0.0382   1.0000
  14.500   1.4996   0.02950   0.02357  -0.0076   0.0369   1.0000
  14.750   1.5038   0.03136   0.02545  -0.0065   0.0357   1.0000
  15.000   1.5121   0.03292   0.02709  -0.0057   0.0349   1.0000
  15.250   1.5199   0.03456   0.02880  -0.0050   0.0340   1.0000
  15.500   1.5256   0.03645   0.03075  -0.0044   0.0332   1.0000
  15.750   1.5290   0.03863   0.03297  -0.0038   0.0324   1.0000
  16.000   1.5283   0.04130   0.03570  -0.0034   0.0315   1.0000
  16.250   1.5293   0.04388   0.03836  -0.0031   0.0309   1.0000
  16.500   1.5333   0.04622   0.04078  -0.0030   0.0303   1.0000
  16.750   1.5358   0.04878   0.04342  -0.0031   0.0296   1.0000
  17.000   1.5358   0.05168   0.04639  -0.0032   0.0290   1.0000
  17.250   1.5337   0.05488   0.04966  -0.0035   0.0285   1.0000
  17.500   1.5288   0.05849   0.05334  -0.0039   0.0280   1.0000
  17.750   1.5197   0.06272   0.05766  -0.0047   0.0275   1.0000
  18.000   1.5109   0.06698   0.06201  -0.0055   0.0271   1.0000
  18.250   1.5079   0.07056   0.06568  -0.0063   0.0267   1.0000
  18.500   1.5033   0.07440   0.06962  -0.0072   0.0264   1.0000
  18.750   1.4971   0.07850   0.07381  -0.0082   0.0260   1.0000
  19.000   1.4896   0.08280   0.07820  -0.0094   0.0257   1.0000
  19.250   1.4815   0.08725   0.08274  -0.0107   0.0253   1.0000
