  
       XFOIL         Version 6.99
  
 Calculated polar for: NACA 2415                                       
  
 1 1 Reynolds number fixed          Mach number fixed         
  
 xtrf =   1.000 (top)        1.000 (bottom)  
 Mach =   0.000     Re =     1.000 e 6     Ncrit =   5.000
  
   alpha    CL        CD       CDp       CM     Top_Xtr  Bot_Xtr
  ------ -------- --------- --------- -------- -------- --------
  -5.000  -0.3151   0.00914   0.00282  -0.0531   0.7594   0.0932
  -4.500  -0.2604   0.00889   0.00255  -0.0528   0.7330   0.1080
  -3.500  -0.1507   0.00850   0.00213  -0.0522   0.6788   0.1458
  -2.500  -0.0406   0.00820   0.00182  -0.0517   0.6238   0.1971
  -2.000   0.0145   0.00810   0.00172  -0.0514   0.5970   0.2273
  -1.500   0.0699   0.00799   0.00165  -0.0513   0.5720   0.2612
  -1.000   0.1253   0.00790   0.00160  -0.0511   0.5473   0.2983
  -0.500   0.1806   0.00783   0.00158  -0.0509   0.5244   0.3402
   0.000   0.2359   0.00776   0.00158  -0.0507   0.5033   0.3878
   0.500   0.2909   0.00764   0.00160  -0.0505   0.4834   0.4517
   1.000   0.3457   0.00755   0.00166  -0.0503   0.4643   0.5209
   1.500   0.4006   0.00750   0.00174  -0.0500   0.4458   0.5831
   2.000   0.4554   0.00749   0.00185  -0.0497   0.4273   0.6431
   2.500   0.5098   0.00751   0.00199  -0.0493   0.4080   0.7019
   3.000   0.5635   0.00756   0.00215  -0.0487   0.3864   0.7606
   3.500   0.6159   0.00769   0.00236  -0.0478   0.3620   0.8193
   4.000   0.6674   0.00785   0.00260  -0.0467   0.3362   0.8746
   4.500   0.7174   0.00815   0.00290  -0.0453   0.3082   0.9234
   5.000   0.7715   0.00858   0.00324  -0.0448   0.2773   0.9640
   5.500   0.8317   0.00910   0.00362  -0.0460   0.2444   0.9822
   6.000   0.8929   0.00969   0.00404  -0.0475   0.2116   0.9917
   7.000   1.0068   0.01100   0.00502  -0.0489   0.1518   1.0000
   7.500   1.0460   0.01161   0.00551  -0.0459   0.1294   1.0000
   8.000   1.0872   0.01225   0.00605  -0.0433   0.1105   1.0000
   8.500   1.1288   0.01296   0.00667  -0.0409   0.0939   1.0000
   9.000   1.1705   0.01368   0.00732  -0.0386   0.0810   1.0000
   9.500   1.2109   0.01442   0.00802  -0.0362   0.0704   1.0000
  10.000   1.2470   0.01520   0.00877  -0.0330   0.0619   1.0000
  10.500   1.2820   0.01606   0.00962  -0.0298   0.0552   1.0000
  11.000   1.3163   0.01703   0.01059  -0.0267   0.0495   1.0000
  11.500   1.3491   0.01812   0.01169  -0.0237   0.0448   1.0000
  12.000   1.3803   0.01935   0.01294  -0.0208   0.0408   1.0000
  12.500   1.4105   0.02072   0.01435  -0.0180   0.0374   1.0000
  13.000   1.4379   0.02233   0.01602  -0.0153   0.0348   1.0000
  13.500   1.4636   0.02417   0.01792  -0.0127   0.0324   1.0000
  14.000   1.4864   0.02634   0.02017  -0.0103   0.0303   1.0000
  14.500   1.5068   0.02884   0.02275  -0.0082   0.0284   1.0000
  15.000   1.5235   0.03183   0.02583  -0.0064   0.0269   1.0000
