  
       XFOIL         Version 6.99
  
 Calculated polar for: NACA 2415                                       
  
 1 1 Reynolds number fixed          Mach number fixed         
  
 xtrf =   1.000 (top)        1.000 (bottom)  
 Mach =   0.000     Re =     0.861 e 6     Ncrit =   5.000
  
   alpha    CL        CD       CDp       CM     Top_Xtr  Bot_Xtr
  ------ -------- --------- --------- -------- -------- --------
 -18.750  -1.1007   0.09501   0.09153  -0.0405   1.0000   0.0188
 -18.500  -1.1393   0.08532   0.08169  -0.0457   1.0000   0.0188
 -18.250  -1.1793   0.07570   0.07190  -0.0509   1.0000   0.0188
 -18.000  -1.2162   0.06665   0.06268  -0.0559   1.0000   0.0187
 -17.750  -1.2453   0.05872   0.05459  -0.0604   1.0000   0.0188
 -17.500  -1.2663   0.05204   0.04776  -0.0644   1.0000   0.0189
 -17.250  -1.2802   0.04655   0.04213  -0.0677   1.0000   0.0190
 -17.000  -1.2883   0.04206   0.03752  -0.0703   1.0000   0.0192
 -16.750  -1.2922   0.03837   0.03372  -0.0722   1.0000   0.0193
 -16.500  -1.2928   0.03533   0.03058  -0.0735   1.0000   0.0195
 -16.250  -1.2908   0.03281   0.02796  -0.0742   1.0000   0.0198
 -16.000  -1.2869   0.03071   0.02577  -0.0745   1.0000   0.0200
 -15.750  -1.2815   0.02894   0.02392  -0.0742   1.0000   0.0203
 -15.500  -1.2747   0.02745   0.02234  -0.0736   1.0000   0.0205
 -15.250  -1.2669   0.02618   0.02099  -0.0726   1.0000   0.0208
 -15.000  -1.2583   0.02509   0.01983  -0.0714   1.0000   0.0210
 -14.750  -1.2514   0.02403   0.01871  -0.0696   1.0000   0.0213
 -14.500  -1.2449   0.02313   0.01776  -0.0673   1.0000   0.0217
 -14.250  -1.2402   0.02241   0.01700  -0.0642   1.0000   0.0220
 -14.000  -1.2378   0.02184   0.01638  -0.0603   1.0000   0.0223
 -13.750  -1.2305   0.02128   0.01578  -0.0572   1.0000   0.0227
 -13.500  -1.2229   0.02078   0.01524  -0.0541   1.0000   0.0231
 -13.250  -1.2017   0.02020   0.01461  -0.0536   0.9988   0.0236
 -13.000  -1.1749   0.01962   0.01397  -0.0541   0.9970   0.0242
 -12.750  -1.1479   0.01898   0.01330  -0.0547   0.9952   0.0248
 -12.500  -1.1199   0.01837   0.01266  -0.0555   0.9937   0.0254
 -12.250  -1.0929   0.01782   0.01208  -0.0560   0.9916   0.0261
 -12.000  -1.0657   0.01732   0.01155  -0.0564   0.9890   0.0269
 -11.750  -1.0369   0.01685   0.01104  -0.0570   0.9868   0.0276
 -11.500  -1.0076   0.01637   0.01052  -0.0578   0.9847   0.0283
 -11.250  -0.9783   0.01587   0.01001  -0.0586   0.9827   0.0294
 -11.000  -0.9508   0.01545   0.00957  -0.0589   0.9794   0.0304
 -10.750  -0.9242   0.01507   0.00916  -0.0589   0.9751   0.0314
 -10.500  -0.8959   0.01468   0.00874  -0.0592   0.9715   0.0323
 -10.250  -0.8675   0.01426   0.00831  -0.0597   0.9682   0.0335
 -10.000  -0.8428   0.01392   0.00795  -0.0592   0.9620   0.0347
  -9.750  -0.8156   0.01360   0.00760  -0.0592   0.9570   0.0359
  -9.500  -0.7896   0.01326   0.00725  -0.0590   0.9514   0.0374
  -9.250  -0.7642   0.01294   0.00692  -0.0586   0.9445   0.0389
  -9.000  -0.7377   0.01266   0.00660  -0.0583   0.9384   0.0404
  -8.750  -0.7123   0.01238   0.00630  -0.0579   0.9305   0.0419
  -8.500  -0.6864   0.01209   0.00599  -0.0575   0.9228   0.0439
  -8.250  -0.6605   0.01185   0.00572  -0.0571   0.9139   0.0459
  -8.000  -0.6346   0.01159   0.00544  -0.0567   0.9046   0.0482
  -7.750  -0.6084   0.01136   0.00518  -0.0563   0.8944   0.0505
  -7.500  -0.5820   0.01114   0.00493  -0.0560   0.8847   0.0529
  -7.250  -0.5557   0.01091   0.00468  -0.0557   0.8742   0.0560
  -7.000  -0.5289   0.01073   0.00446  -0.0554   0.8648   0.0589
  -6.750  -0.5023   0.01052   0.00424  -0.0551   0.8546   0.0624
  -6.500  -0.4752   0.01034   0.00403  -0.0549   0.8448   0.0659
  -6.000  -0.4214   0.00999   0.00364  -0.0544   0.8222   0.0746
  -5.750  -0.3945   0.00983   0.00346  -0.0542   0.8116   0.0800
  -5.500  -0.3674   0.00967   0.00329  -0.0540   0.7997   0.0855
  -5.250  -0.3401   0.00954   0.00313  -0.0538   0.7876   0.0913
  -5.000  -0.3131   0.00939   0.00297  -0.0536   0.7751   0.0985
  -4.750  -0.2859   0.00927   0.00283  -0.0534   0.7621   0.1054
  -4.500  -0.2585   0.00915   0.00270  -0.0532   0.7491   0.1136
  -4.250  -0.2314   0.00903   0.00257  -0.0530   0.7360   0.1226
  -4.000  -0.2042   0.00892   0.00245  -0.0528   0.7226   0.1320
  -3.750  -0.1767   0.00883   0.00234  -0.0526   0.7085   0.1422
  -3.500  -0.1494   0.00873   0.00224  -0.0525   0.6949   0.1539
  -3.250  -0.1221   0.00864   0.00215  -0.0523   0.6816   0.1662
  -3.000  -0.0948   0.00856   0.00206  -0.0521   0.6675   0.1790
  -2.750  -0.0673   0.00848   0.00199  -0.0520   0.6534   0.1927
  -2.500  -0.0398   0.00841   0.00192  -0.0519   0.6399   0.2073
  -2.250  -0.0124   0.00835   0.00187  -0.0517   0.6265   0.2226
  -2.000   0.0150   0.00830   0.00182  -0.0516   0.6129   0.2392
  -1.750   0.0426   0.00824   0.00177  -0.0514   0.5994   0.2564
  -1.500   0.0702   0.00819   0.00174  -0.0513   0.5869   0.2745
  -1.250   0.0976   0.00814   0.00171  -0.0512   0.5742   0.2940
  -1.000   0.1251   0.00810   0.00169  -0.0511   0.5614   0.3141
  -0.750   0.1527   0.00804   0.00167  -0.0510   0.5498   0.3355
  -0.500   0.1801   0.00801   0.00166  -0.0508   0.5382   0.3585
  -0.250   0.2077   0.00796   0.00166  -0.0507   0.5268   0.3833
   0.000   0.2350   0.00790   0.00166  -0.0506   0.5162   0.4122
   0.250   0.2622   0.00785   0.00167  -0.0504   0.5052   0.4460
   0.500   0.2896   0.00778   0.00169  -0.0503   0.4952   0.4818
   0.750   0.3167   0.00775   0.00172  -0.0501   0.4851   0.5167
   1.000   0.3441   0.00770   0.00175  -0.0500   0.4753   0.5498
   1.250   0.3713   0.00769   0.00180  -0.0498   0.4660   0.5811
   1.500   0.3987   0.00767   0.00184  -0.0496   0.4565   0.6119
   1.750   0.4258   0.00766   0.00190  -0.0494   0.4473   0.6423
   2.000   0.4530   0.00766   0.00196  -0.0492   0.4377   0.6718
   2.250   0.4800   0.00767   0.00203  -0.0489   0.4285   0.7017
   2.500   0.5069   0.00768   0.00210  -0.0486   0.4185   0.7314
   2.750   0.5336   0.00770   0.00219  -0.0483   0.4091   0.7616
   3.000   0.5599   0.00774   0.00228  -0.0479   0.3979   0.7908
   3.250   0.5863   0.00778   0.00238  -0.0475   0.3869   0.8203
   3.500   0.6121   0.00785   0.00250  -0.0469   0.3755   0.8485
   3.750   0.6375   0.00795   0.00262  -0.0463   0.3626   0.8755
   4.000   0.6632   0.00805   0.00275  -0.0456   0.3496   0.9003
   4.250   0.6886   0.00820   0.00289  -0.0450   0.3363   0.9226
   4.500   0.7152   0.00838   0.00305  -0.0446   0.3222   0.9436
   4.750   0.7443   0.00860   0.00321  -0.0448   0.3068   0.9616
   5.000   0.7756   0.00885   0.00339  -0.0456   0.2906   0.9734
   5.250   0.8055   0.00911   0.00357  -0.0461   0.2742   0.9817
   5.500   0.8376   0.00939   0.00377  -0.0472   0.2571   0.9861
   5.750   0.8682   0.00968   0.00398  -0.0479   0.2404   0.9909
   6.000   0.8997   0.00999   0.00420  -0.0489   0.2235   0.9941
   6.250   0.9318   0.01032   0.00444  -0.0501   0.2063   0.9969
   6.500   0.9631   0.01066   0.00470  -0.0511   0.1897   0.9997
   6.750   0.9837   0.01096   0.00493  -0.0497   0.1763   1.0000
   7.000   1.0029   0.01126   0.00516  -0.0481   0.1636   1.0000
   7.250   1.0222   0.01159   0.00541  -0.0465   0.1511   1.0000
   7.500   1.0419   0.01192   0.00568  -0.0450   0.1394   1.0000
   7.750   1.0623   0.01226   0.00596  -0.0437   0.1285   1.0000
   8.000   1.0831   0.01259   0.00625  -0.0425   0.1187   1.0000
   8.250   1.1038   0.01295   0.00655  -0.0413   0.1097   1.0000
   8.500   1.1243   0.01333   0.00689  -0.0400   0.1013   1.0000
   8.750   1.1445   0.01371   0.00723  -0.0388   0.0932   1.0000
   9.000   1.1652   0.01407   0.00757  -0.0376   0.0869   1.0000
   9.250   1.1848   0.01447   0.00794  -0.0363   0.0808   1.0000
   9.500   1.2037   0.01488   0.00832  -0.0349   0.0750   1.0000
   9.750   1.2216   0.01527   0.00870  -0.0333   0.0706   1.0000
  10.000   1.2384   0.01571   0.00912  -0.0315   0.0660   1.0000
  10.250   1.2561   0.01614   0.00955  -0.0299   0.0623   1.0000
  10.750   1.2902   0.01710   0.01051  -0.0268   0.0556   1.0000
  11.000   1.3064   0.01765   0.01106  -0.0253   0.0526   1.0000
  11.250   1.3231   0.01819   0.01161  -0.0238   0.0501   1.0000
  11.500   1.3388   0.01879   0.01222  -0.0223   0.0474   1.0000
  11.750   1.3540   0.01944   0.01287  -0.0208   0.0452   1.0000
  12.000   1.3697   0.02007   0.01354  -0.0194   0.0434   1.0000
  12.250   1.3839   0.02082   0.01430  -0.0179   0.0414   1.0000
  12.500   1.3978   0.02160   0.01510  -0.0165   0.0398   1.0000
  12.750   1.4118   0.02240   0.01593  -0.0152   0.0382   1.0000
  13.000   1.4245   0.02332   0.01687  -0.0139   0.0366   1.0000
  13.250   1.4363   0.02432   0.01791  -0.0125   0.0353   1.0000
  13.500   1.4489   0.02530   0.01893  -0.0114   0.0343   1.0000
  13.750   1.4603   0.02640   0.02007  -0.0102   0.0331   1.0000
  14.000   1.4704   0.02764   0.02135  -0.0091   0.0320   1.0000
  14.250   1.4794   0.02901   0.02275  -0.0080   0.0310   1.0000
  14.500   1.4895   0.03033   0.02413  -0.0071   0.0301   1.0000
  14.750   1.4982   0.03182   0.02568  -0.0063   0.0292   1.0000
  15.000   1.5054   0.03348   0.02738  -0.0055   0.0284   1.0000
  15.250   1.5112   0.03532   0.02927  -0.0048   0.0276   1.0000
  15.500   1.5166   0.03726   0.03127  -0.0042   0.0270   1.0000
  15.750   1.5226   0.03920   0.03329  -0.0037   0.0264   1.0000
  16.000   1.5271   0.04134   0.03549  -0.0034   0.0259   1.0000
  16.250   1.5303   0.04367   0.03789  -0.0031   0.0253   1.0000
  16.500   1.5322   0.04623   0.04051  -0.0030   0.0247   1.0000
  16.750   1.5326   0.04903   0.04338  -0.0030   0.0241   1.0000
  17.000   1.5313   0.05206   0.04648  -0.0032   0.0237   1.0000
  17.250   1.5315   0.05498   0.04949  -0.0034   0.0232   1.0000
  17.500   1.5308   0.05809   0.05268  -0.0038   0.0228   1.0000
  17.750   1.5286   0.06143   0.05610  -0.0043   0.0224   1.0000
  18.000   1.5250   0.06498   0.05973  -0.0050   0.0220   1.0000
  18.250   1.5202   0.06874   0.06359  -0.0057   0.0217   1.0000
  18.500   1.5142   0.07273   0.06767  -0.0067   0.0214   1.0000
  18.750   1.5068   0.07697   0.07199  -0.0077   0.0211   1.0000
  19.000   1.4981   0.08142   0.07652  -0.0089   0.0208   1.0000
  19.250   1.4880   0.08613   0.08132  -0.0103   0.0205   1.0000
