  
       XFOIL         Version 6.99
  
 Calculated polar for: NACA 2415                                       
  
 1 1 Reynolds number fixed          Mach number fixed         
  
 xtrf =   1.000 (top)        1.000 (bottom)  
 Mach =   0.000     Re =     0.500 e 6     Ncrit =   9.000
  
   alpha    CL        CD       CDp       CM     Top_Xtr  Bot_Xtr
  ------ -------- --------- --------- -------- -------- --------
   0.000   0.2309   0.00748   0.00235  -0.0500   0.6566   0.7172
   0.250   0.2569   0.00747   0.00238  -0.0494   0.6427   0.7502
   0.500   0.2826   0.00747   0.00243  -0.0487   0.6290   0.7825
   0.750   0.3082   0.00749   0.00249  -0.0479   0.6153   0.8128
   1.000   0.3340   0.00752   0.00256  -0.0472   0.6020   0.8424
   1.250   0.3597   0.00758   0.00264  -0.0464   0.5894   0.8690
   1.500   0.3852   0.00769   0.00273  -0.0455   0.5769   0.8934
   1.750   0.4117   0.00778   0.00283  -0.0449   0.5646   0.9151
   2.000   0.4391   0.00792   0.00293  -0.0445   0.5529   0.9335
   2.500   0.5019   0.00823   0.00316  -0.0455   0.5292   0.9599
   2.750   0.5356   0.00840   0.00328  -0.0466   0.5178   0.9699
   3.000   0.5741   0.00859   0.00340  -0.0488   0.5056   0.9763
   3.250   0.6128   0.00875   0.00352  -0.0510   0.4937   0.9823
   3.500   0.6544   0.00892   0.00363  -0.0539   0.4815   0.9861
   3.750   0.6941   0.00911   0.00375  -0.0565   0.4689   0.9914
   4.000   0.7377   0.00925   0.00386  -0.0599   0.4559   0.9956
   4.250   0.7809   0.00941   0.00397  -0.0632   0.4426   0.9997
   4.500   0.8034   0.00955   0.00406  -0.0623   0.4313   1.0000
   4.750   0.8245   0.00965   0.00414  -0.0610   0.4197   1.0000
   5.000   0.8453   0.00979   0.00424  -0.0596   0.4082   1.0000
   5.250   0.8654   0.00996   0.00435  -0.0581   0.3959   1.0000
   5.500   0.8861   0.01011   0.00447  -0.0567   0.3829   1.0000
   5.750   0.9067   0.01028   0.00461  -0.0553   0.3696   1.0000
   6.000   0.9268   0.01048   0.00476  -0.0538   0.3560   1.0000
   6.250   0.9468   0.01071   0.00493  -0.0523   0.3417   1.0000
   6.500   0.9665   0.01097   0.00512  -0.0507   0.3268   1.0000
   7.000   1.0061   0.01152   0.00555  -0.0477   0.2957   1.0000
   7.250   1.0261   0.01183   0.00580  -0.0462   0.2797   1.0000
   7.500   1.0460   0.01216   0.00607  -0.0448   0.2634   1.0000
   7.750   1.0658   0.01253   0.00637  -0.0434   0.2469   1.0000
   8.000   1.0855   0.01293   0.00669  -0.0420   0.2304   1.0000
   8.250   1.1048   0.01335   0.00704  -0.0405   0.2141   1.0000
   8.500   1.1238   0.01380   0.00741  -0.0391   0.1981   1.0000
   9.250   1.1777   0.01528   0.00869  -0.0344   0.1544   1.0000
   9.500   1.1935   0.01579   0.00915  -0.0325   0.1422   1.0000
   9.750   1.2085   0.01633   0.00965  -0.0304   0.1310   1.0000
  10.000   1.2233   0.01691   0.01019  -0.0284   0.1210   1.0000
