  
       XFOIL         Version 6.99
  
 Calculated polar for: NACA 2415                                       
  
 1 1 Reynolds number fixed          Mach number fixed         
  
 xtrf =   1.000 (top)        1.000 (bottom)  
 Mach =   0.000     Re =     0.826 e 6     Ncrit =   9.000
  
   alpha    CL        CD       CDp       CM     Top_Xtr  Bot_Xtr
  ------ -------- --------- --------- -------- -------- --------
 -18.750  -1.0713   0.09785   0.09448  -0.0399   1.0000   0.0235
 -18.500  -1.0885   0.09139   0.08792  -0.0434   1.0000   0.0236
 -18.250  -1.1059   0.08498   0.08140  -0.0469   1.0000   0.0238
 -18.000  -1.1237   0.07867   0.07497  -0.0504   1.0000   0.0239
 -17.750  -1.1408   0.07254   0.06872  -0.0537   1.0000   0.0240
 -17.500  -1.1569   0.06668   0.06273  -0.0569   1.0000   0.0241
 -17.250  -1.1702   0.06119   0.05712  -0.0600   1.0000   0.0243
 -17.000  -1.1806   0.05614   0.05195  -0.0629   1.0000   0.0244
 -16.750  -1.1960   0.05065   0.04634  -0.0659   1.0000   0.0246
 -16.500  -1.2088   0.04557   0.04116  -0.0687   1.0000   0.0248
 -16.250  -1.2165   0.04127   0.03676  -0.0710   1.0000   0.0250
 -16.000  -1.2197   0.03775   0.03315  -0.0728   1.0000   0.0253
 -15.750  -1.2192   0.03488   0.03020  -0.0739   1.0000   0.0256
 -15.500  -1.2160   0.03253   0.02776  -0.0745   1.0000   0.0259
 -15.250  -1.2113   0.03054   0.02570  -0.0747   1.0000   0.0262
 -15.000  -1.2055   0.02884   0.02392  -0.0743   1.0000   0.0266
 -14.750  -1.1985   0.02740   0.02240  -0.0736   1.0000   0.0270
 -14.500  -1.1908   0.02618   0.02110  -0.0724   1.0000   0.0274
 -14.250  -1.1821   0.02516   0.01999  -0.0710   1.0000   0.0277
 -14.000  -1.1727   0.02433   0.01908  -0.0692   1.0000   0.0280
 -13.750  -1.1785   0.02315   0.01785  -0.0650   1.0000   0.0285
 -13.500  -1.1836   0.02244   0.01711  -0.0600   1.0000   0.0289
 -13.250  -1.1799   0.02183   0.01647  -0.0563   1.0000   0.0293
 -13.000  -1.1739   0.02134   0.01594  -0.0529   1.0000   0.0298
 -12.750  -1.1667   0.02088   0.01545  -0.0496   1.0000   0.0304
 -12.500  -1.1586   0.02044   0.01496  -0.0463   1.0000   0.0309
 -12.250  -1.1491   0.02002   0.01448  -0.0434   1.0000   0.0315
 -11.500  -1.0671   0.01802   0.01238  -0.0453   0.9957   0.0341
 -11.250  -1.0349   0.01753   0.01185  -0.0466   0.9943   0.0352
 -11.000  -1.0013   0.01714   0.01140  -0.0482   0.9933   0.0362
 -10.750  -0.9740   0.01641   0.01066  -0.0487   0.9905   0.0376
 -10.500  -0.9428   0.01595   0.01020  -0.0498   0.9882   0.0390
 -10.250  -0.9099   0.01555   0.00976  -0.0511   0.9862   0.0404
 -10.000  -0.8771   0.01502   0.00920  -0.0525   0.9846   0.0419
  -9.750  -0.8432   0.01453   0.00872  -0.0541   0.9833   0.0437
  -9.500  -0.8076   0.01418   0.00834  -0.0560   0.9823   0.0456
  -9.250  -0.7766   0.01371   0.00786  -0.0569   0.9796   0.0477
  -9.000  -0.7458   0.01332   0.00748  -0.0577   0.9762   0.0499
  -8.750  -0.7130   0.01301   0.00714  -0.0588   0.9735   0.0519
  -8.500  -0.6810   0.01253   0.00668  -0.0599   0.9708   0.0550
  -8.250  -0.6507   0.01223   0.00637  -0.0604   0.9671   0.0577
  -8.000  -0.6250   0.01187   0.00601  -0.0600   0.9606   0.0608
  -7.750  -0.5965   0.01156   0.00571  -0.0601   0.9558   0.0641
  -7.500  -0.5711   0.01127   0.00541  -0.0595   0.9489   0.0676
  -7.250  -0.5450   0.01099   0.00513  -0.0591   0.9423   0.0717
  -7.000  -0.5187   0.01072   0.00486  -0.0587   0.9360   0.0761
  -6.750  -0.4929   0.01048   0.00462  -0.0582   0.9284   0.0808
  -6.500  -0.4662   0.01021   0.00436  -0.0579   0.9219   0.0865
  -6.000  -0.4136   0.00976   0.00392  -0.0571   0.9056   0.0994
  -5.750  -0.3870   0.00955   0.00373  -0.0567   0.8968   0.1071
  -5.250  -0.3333   0.00915   0.00335  -0.0562   0.8788   0.1250
  -5.000  -0.3064   0.00896   0.00317  -0.0558   0.8694   0.1357
  -4.750  -0.2793   0.00878   0.00301  -0.0556   0.8589   0.1470
  -4.500  -0.2521   0.00862   0.00286  -0.0554   0.8488   0.1594
  -4.250  -0.2249   0.00847   0.00272  -0.0551   0.8374   0.1725
  -3.750  -0.1705   0.00819   0.00246  -0.0546   0.8145   0.2030
  -3.500  -0.1432   0.00805   0.00236  -0.0544   0.8019   0.2198
  -3.250  -0.1159   0.00793   0.00226  -0.0542   0.7897   0.2375
  -2.750  -0.0614   0.00771   0.00208  -0.0538   0.7631   0.2762
  -2.500  -0.0341   0.00760   0.00200  -0.0536   0.7496   0.2976
  -2.250  -0.0069   0.00751   0.00194  -0.0534   0.7359   0.3199
  -2.000   0.0202   0.00743   0.00188  -0.0531   0.7219   0.3439
  -1.750   0.0473   0.00734   0.00182  -0.0529   0.7073   0.3693
  -1.500   0.0744   0.00724   0.00178  -0.0527   0.6930   0.3987
  -1.250   0.1013   0.00713   0.00174  -0.0524   0.6787   0.4338
  -1.000   0.1279   0.00703   0.00172  -0.0521   0.6644   0.4731
  -0.750   0.1545   0.00695   0.00171  -0.0518   0.6499   0.5130
  -0.500   0.1814   0.00687   0.00170  -0.0515   0.6355   0.5513
  -0.250   0.2083   0.00681   0.00171  -0.0512   0.6218   0.5882
   0.000   0.2350   0.00677   0.00173  -0.0508   0.6081   0.6230
   0.250   0.2616   0.00675   0.00175  -0.0505   0.5945   0.6563
   0.750   0.3152   0.00669   0.00182  -0.0498   0.5687   0.7221
   1.000   0.3416   0.00670   0.00187  -0.0493   0.5563   0.7531
   1.250   0.3683   0.00670   0.00193  -0.0489   0.5441   0.7843
   1.500   0.3947   0.00670   0.00200  -0.0484   0.5329   0.8140
   1.750   0.4208   0.00675   0.00207  -0.0478   0.5215   0.8429
   2.000   0.4471   0.00678   0.00215  -0.0473   0.5107   0.8692
   2.250   0.4730   0.00685   0.00224  -0.0466   0.5003   0.8937
   2.500   0.4991   0.00693   0.00234  -0.0460   0.4897   0.9154
   2.750   0.5255   0.00703   0.00244  -0.0454   0.4798   0.9341
   3.000   0.5527   0.00717   0.00254  -0.0451   0.4691   0.9494
   3.250   0.5831   0.00729   0.00265  -0.0454   0.4589   0.9611
   3.500   0.6140   0.00745   0.00276  -0.0459   0.4482   0.9709
   3.750   0.6474   0.00760   0.00287  -0.0470   0.4369   0.9787
   4.000   0.6835   0.00776   0.00299  -0.0488   0.4254   0.9835
   4.250   0.7224   0.00796   0.00312  -0.0512   0.4126   0.9868
   4.500   0.7608   0.00814   0.00325  -0.0535   0.3987   0.9912
   4.750   0.8007   0.00833   0.00339  -0.0561   0.3841   0.9944
   5.000   0.8396   0.00852   0.00351  -0.0586   0.3686   0.9970
   5.250   0.8760   0.00873   0.00365  -0.0605   0.3525   0.9993
   5.500   0.9016   0.00892   0.00378  -0.0602   0.3378   1.0000
   5.750   0.9215   0.00911   0.00391  -0.0587   0.3239   1.0000
   6.000   0.9412   0.00933   0.00406  -0.0571   0.3091   1.0000
   6.250   0.9607   0.00956   0.00423  -0.0554   0.2938   1.0000
   6.500   0.9803   0.00981   0.00440  -0.0539   0.2786   1.0000
   6.750   1.0000   0.01006   0.00460  -0.0523   0.2633   1.0000
   7.000   1.0197   0.01034   0.00480  -0.0507   0.2478   1.0000
   7.250   1.0393   0.01064   0.00503  -0.0492   0.2321   1.0000
   7.500   1.0589   0.01096   0.00527  -0.0476   0.2167   1.0000
   7.750   1.0788   0.01131   0.00554  -0.0462   0.2013   1.0000
   8.000   1.0989   0.01167   0.00583  -0.0448   0.1862   1.0000
   8.250   1.1191   0.01206   0.00614  -0.0435   0.1717   1.0000
   8.500   1.1393   0.01245   0.00647  -0.0422   0.1580   1.0000
   8.750   1.1592   0.01287   0.00682  -0.0409   0.1450   1.0000
   9.000   1.1790   0.01329   0.00718  -0.0396   0.1333   1.0000
   9.250   1.1983   0.01373   0.00757  -0.0382   0.1224   1.0000
   9.500   1.2168   0.01420   0.00798  -0.0367   0.1123   1.0000
  10.000   1.2510   0.01511   0.00883  -0.0333   0.0959   1.0000
  10.250   1.2672   0.01560   0.00928  -0.0314   0.0891   1.0000
  10.500   1.2821   0.01617   0.00982  -0.0295   0.0824   1.0000
  10.750   1.2991   0.01665   0.01031  -0.0279   0.0775   1.0000
  11.000   1.3142   0.01726   0.01089  -0.0261   0.0725   1.0000
  11.250   1.3300   0.01784   0.01148  -0.0245   0.0682   1.0000
  11.500   1.3445   0.01850   0.01214  -0.0228   0.0643   1.0000
  11.750   1.3595   0.01916   0.01280  -0.0213   0.0608   1.0000
  12.000   1.3724   0.01995   0.01360  -0.0195   0.0577   1.0000
  12.250   1.3873   0.02065   0.01433  -0.0181   0.0551   1.0000
  12.500   1.3988   0.02158   0.01526  -0.0164   0.0524   1.0000
  12.750   1.4122   0.02243   0.01614  -0.0150   0.0502   1.0000
  13.000   1.4247   0.02336   0.01710  -0.0137   0.0481   1.0000
  13.250   1.4336   0.02457   0.01833  -0.0121   0.0461   1.0000
  13.500   1.4452   0.02563   0.01944  -0.0109   0.0446   1.0000
  13.750   1.4563   0.02677   0.02063  -0.0097   0.0431   1.0000
  14.000   1.4646   0.02817   0.02206  -0.0085   0.0416   1.0000
  14.250   1.4698   0.02986   0.02379  -0.0072   0.0401   1.0000
  14.500   1.4803   0.03119   0.02519  -0.0064   0.0390   1.0000
  14.750   1.4884   0.03277   0.02682  -0.0056   0.0378   1.0000
  15.000   1.4935   0.03465   0.02875  -0.0048   0.0368   1.0000
  15.250   1.4940   0.03704   0.03118  -0.0040   0.0358   1.0000
  15.500   1.4988   0.03910   0.03333  -0.0036   0.0350   1.0000
  15.750   1.5041   0.04117   0.03548  -0.0032   0.0342   1.0000
  16.000   1.5075   0.04349   0.03787  -0.0029   0.0334   1.0000
  16.250   1.5087   0.04613   0.04057  -0.0028   0.0327   1.0000
  16.500   1.5069   0.04919   0.04369  -0.0029   0.0320   1.0000
  16.750   1.4997   0.05293   0.04750  -0.0031   0.0313   1.0000
  17.000   1.4990   0.05601   0.05068  -0.0034   0.0308   1.0000
  17.250   1.4993   0.05902   0.05378  -0.0038   0.0302   1.0000
  17.500   1.4976   0.06234   0.05719  -0.0044   0.0297   1.0000
  17.750   1.4941   0.06591   0.06084  -0.0050   0.0292   1.0000
  18.000   1.4887   0.06980   0.06481  -0.0058   0.0287   1.0000
  18.250   1.4812   0.07404   0.06913  -0.0069   0.0283   1.0000
  18.500   1.4712   0.07866   0.07383  -0.0081   0.0279   1.0000
  18.750   1.4578   0.08378   0.07904  -0.0095   0.0275   1.0000
  19.000   1.4451   0.08891   0.08426  -0.0110   0.0271   1.0000
  19.250   1.4397   0.09309   0.08855  -0.0123   0.0268   1.0000
