  
       XFOIL         Version 6.99
  
 Calculated polar for: NACA 2415                                       
  
 1 1 Reynolds number fixed          Mach number fixed         
  
 xtrf =   1.000 (top)        1.000 (bottom)  
 Mach =   0.000     Re =     0.750 e 6     Ncrit =   9.000
  
   alpha    CL        CD       CDp       CM     Top_Xtr  Bot_Xtr
  ------ -------- --------- --------- -------- -------- --------
   0.000   0.2342   0.00688   0.00182  -0.0507   0.6171   0.6413
   0.250   0.2609   0.00685   0.00184  -0.0503   0.6036   0.6745
   0.500   0.2875   0.00683   0.00188  -0.0499   0.5904   0.7076
   1.000   0.3403   0.00681   0.00197  -0.0490   0.5647   0.7710
   1.250   0.3667   0.00682   0.00204  -0.0485   0.5528   0.8018
   1.750   0.4189   0.00688   0.00219  -0.0473   0.5296   0.8587
   2.000   0.4449   0.00695   0.00227  -0.0466   0.5187   0.8838
   2.250   0.4708   0.00703   0.00237  -0.0459   0.5077   0.9066
   2.500   0.4973   0.00712   0.00247  -0.0454   0.4976   0.9262
   3.000   0.5536   0.00738   0.00268  -0.0451   0.4764   0.9564
   3.250   0.5831   0.00754   0.00279  -0.0452   0.4659   0.9683
   3.500   0.6185   0.00769   0.00290  -0.0468   0.4545   0.9750
   3.750   0.6524   0.00785   0.00302  -0.0480   0.4436   0.9820
   4.000   0.6919   0.00804   0.00315  -0.0505   0.4312   0.9850
   4.250   0.7311   0.00821   0.00327  -0.0530   0.4183   0.9890
   4.500   0.7703   0.00839   0.00341  -0.0554   0.4050   0.9935
   4.750   0.8113   0.00857   0.00353  -0.0583   0.3905   0.9962
   5.000   0.8492   0.00876   0.00366  -0.0606   0.3753   0.9989
   5.250   0.8779   0.00895   0.00378  -0.0609   0.3605   1.0000
   5.500   0.8981   0.00913   0.00390  -0.0594   0.3465   1.0000
   5.750   0.9185   0.00930   0.00402  -0.0580   0.3326   1.0000
   6.000   0.9385   0.00950   0.00417  -0.0564   0.3182   1.0000
   6.250   0.9583   0.00973   0.00433  -0.0549   0.3035   1.0000
   6.500   0.9780   0.00997   0.00451  -0.0533   0.2884   1.0000
   6.750   0.9976   0.01024   0.00471  -0.0517   0.2730   1.0000
   7.000   1.0173   0.01053   0.00492  -0.0502   0.2575   1.0000
   7.250   1.0368   0.01083   0.00515  -0.0486   0.2416   1.0000
   7.500   1.0565   0.01116   0.00540  -0.0471   0.2259   1.0000
   7.750   1.0765   0.01151   0.00568  -0.0457   0.2101   1.0000
   8.000   1.0965   0.01188   0.00597  -0.0443   0.1947   1.0000
   8.250   1.1166   0.01227   0.00629  -0.0430   0.1797   1.0000
   8.500   1.1365   0.01269   0.00663  -0.0416   0.1654   1.0000
   8.750   1.1561   0.01312   0.00699  -0.0403   0.1518   1.0000
   9.000   1.1752   0.01357   0.00737  -0.0389   0.1391   1.0000
   9.250   1.1941   0.01403   0.00778  -0.0375   0.1276   1.0000
   9.500   1.2128   0.01448   0.00819  -0.0360   0.1173   1.0000
   9.750   1.2300   0.01493   0.00860  -0.0343   0.1083   1.0000
  10.000   1.2458   0.01543   0.00906  -0.0323   0.1003   1.0000
