  
       XFOIL         Version 6.99
  
 Calculated polar for: NACA 2415                                       
  
 1 1 Reynolds number fixed          Mach number fixed         
  
 xtrf =   1.000 (top)        1.000 (bottom)  
 Mach =   0.000     Re =     1.062 e 6     Ncrit =   9.000
  
   alpha    CL        CD       CDp       CM     Top_Xtr  Bot_Xtr
  ------ -------- --------- --------- -------- -------- --------
 -18.750  -1.1292   0.08984   0.08650  -0.0435   1.0000   0.0214
 -18.500  -1.1564   0.08213   0.07868  -0.0476   1.0000   0.0215
 -18.250  -1.1854   0.07431   0.07074  -0.0518   1.0000   0.0216
 -18.000  -1.2136   0.06673   0.06302  -0.0559   1.0000   0.0216
 -17.750  -1.2385   0.05956   0.05571  -0.0599   1.0000   0.0217
 -17.500  -1.2593   0.05299   0.04902  -0.0637   1.0000   0.0218
 -17.250  -1.2740   0.04738   0.04328  -0.0670   1.0000   0.0219
 -17.000  -1.2831   0.04271   0.03850  -0.0697   1.0000   0.0221
 -16.750  -1.2871   0.03892   0.03461  -0.0718   1.0000   0.0223
 -16.500  -1.2872   0.03584   0.03144  -0.0732   1.0000   0.0226
 -16.250  -1.2845   0.03328   0.02880  -0.0741   1.0000   0.0229
 -16.000  -1.2803   0.03111   0.02654  -0.0746   1.0000   0.0232
 -15.750  -1.2744   0.02928   0.02462  -0.0746   1.0000   0.0235
 -15.500  -1.2675   0.02771   0.02297  -0.0741   1.0000   0.0238
 -15.250  -1.2592   0.02639   0.02157  -0.0734   1.0000   0.0241
 -15.000  -1.2495   0.02530   0.02041  -0.0723   1.0000   0.0243
 -14.750  -1.2458   0.02399   0.01902  -0.0705   1.0000   0.0246
 -14.500  -1.2442   0.02281   0.01778  -0.0678   1.0000   0.0251
 -14.250  -1.2418   0.02201   0.01695  -0.0644   1.0000   0.0254
 -14.000  -1.2413   0.02145   0.01634  -0.0602   1.0000   0.0258
 -13.750  -1.2349   0.02091   0.01577  -0.0569   1.0000   0.0262
 -13.500  -1.2282   0.02044   0.01526  -0.0535   1.0000   0.0266
 -13.250  -1.2209   0.01999   0.01477  -0.0502   1.0000   0.0270
 -13.000  -1.2124   0.01957   0.01430  -0.0470   1.0000   0.0274
 -12.750  -1.1982   0.01918   0.01386  -0.0448   0.9998   0.0278
 -12.500  -1.1706   0.01839   0.01302  -0.0457   0.9984   0.0287
 -12.250  -1.1414   0.01776   0.01238  -0.0466   0.9969   0.0296
 -12.000  -1.1106   0.01726   0.01186  -0.0478   0.9955   0.0304
 -11.750  -1.0788   0.01680   0.01136  -0.0490   0.9944   0.0313
 -11.500  -1.0460   0.01642   0.01093  -0.0504   0.9934   0.0319
 -11.250  -1.0186   0.01572   0.01022  -0.0509   0.9912   0.0332
 -11.000  -0.9885   0.01526   0.00975  -0.0518   0.9890   0.0343
 -10.750  -0.9566   0.01488   0.00935  -0.0529   0.9872   0.0355
 -10.500  -0.9239   0.01448   0.00891  -0.0542   0.9856   0.0367
 -10.250  -0.8914   0.01396   0.00840  -0.0555   0.9843   0.0383
 -10.000  -0.8571   0.01358   0.00801  -0.0571   0.9833   0.0398
  -9.750  -0.8226   0.01327   0.00767  -0.0587   0.9822   0.0411
  -9.500  -0.7954   0.01279   0.00721  -0.0588   0.9783   0.0431
  -9.250  -0.7656   0.01247   0.00688  -0.0593   0.9746   0.0450
  -9.000  -0.7351   0.01215   0.00654  -0.0599   0.9714   0.0469
  -8.750  -0.7068   0.01178   0.00618  -0.0601   0.9675   0.0493
  -8.500  -0.6817   0.01153   0.00591  -0.0595   0.9608   0.0514
  -8.250  -0.6550   0.01120   0.00558  -0.0593   0.9554   0.0539
  -8.000  -0.6300   0.01094   0.00532  -0.0587   0.9483   0.0567
  -7.750  -0.6040   0.01070   0.00505  -0.0582   0.9416   0.0595
  -7.500  -0.5782   0.01042   0.00479  -0.0577   0.9349   0.0631
  -7.250  -0.5519   0.01022   0.00457  -0.0573   0.9275   0.0662
  -7.000  -0.5256   0.00996   0.00432  -0.0570   0.9209   0.0708
  -6.750  -0.4990   0.00975   0.00411  -0.0566   0.9129   0.0751
  -6.250  -0.4456   0.00933   0.00369  -0.0560   0.8965   0.0859
  -6.000  -0.4185   0.00916   0.00350  -0.0557   0.8882   0.0917
  -5.750  -0.3916   0.00894   0.00331  -0.0555   0.8791   0.0992
  -5.500  -0.3646   0.00878   0.00313  -0.0552   0.8696   0.1069
  -5.000  -0.3101   0.00844   0.00282  -0.0548   0.8495   0.1250
  -4.750  -0.2828   0.00828   0.00268  -0.0546   0.8383   0.1357
  -4.500  -0.2554   0.00813   0.00254  -0.0544   0.8274   0.1468
  -3.750  -0.1731   0.00776   0.00219  -0.0539   0.7915   0.1863
  -3.500  -0.1459   0.00765   0.00209  -0.0537   0.7786   0.2020
  -3.250  -0.1183   0.00753   0.00200  -0.0535   0.7653   0.2184
  -3.000  -0.0907   0.00743   0.00192  -0.0534   0.7522   0.2357
  -2.750  -0.0633   0.00735   0.00184  -0.0532   0.7386   0.2539
  -2.250  -0.0083   0.00719   0.00172  -0.0529   0.7102   0.2933
  -2.000   0.0191   0.00710   0.00167  -0.0527   0.6961   0.3152
  -1.750   0.0465   0.00703   0.00162  -0.0525   0.6819   0.3385
  -1.500   0.0738   0.00698   0.00158  -0.0524   0.6674   0.3635
  -1.250   0.1011   0.00690   0.00155  -0.0522   0.6527   0.3909
  -1.000   0.1284   0.00681   0.00152  -0.0520   0.6387   0.4237
  -0.750   0.1554   0.00672   0.00151  -0.0518   0.6249   0.4620
  -0.500   0.1824   0.00664   0.00151  -0.0516   0.6110   0.5011
  -0.250   0.2094   0.00658   0.00151  -0.0513   0.5969   0.5387
   0.000   0.2368   0.00652   0.00152  -0.0512   0.5840   0.5752
   0.250   0.2639   0.00649   0.00154  -0.0509   0.5711   0.6096
   0.500   0.2908   0.00647   0.00157  -0.0506   0.5582   0.6422
   0.750   0.3182   0.00644   0.00161  -0.0504   0.5460   0.6743
   1.000   0.3453   0.00642   0.00165  -0.0502   0.5345   0.7064
   1.250   0.3720   0.00643   0.00170  -0.0498   0.5227   0.7372
   1.500   0.3993   0.00642   0.00175  -0.0496   0.5119   0.7677
   1.750   0.4259   0.00642   0.00181  -0.0491   0.5014   0.7983
   2.000   0.4527   0.00644   0.00188  -0.0488   0.4907   0.8270
   2.250   0.4792   0.00646   0.00196  -0.0483   0.4810   0.8547
   2.500   0.5055   0.00653   0.00205  -0.0478   0.4704   0.8802
   2.750   0.5319   0.00657   0.00214  -0.0472   0.4611   0.9029
   3.250   0.5845   0.00676   0.00233  -0.0461   0.4412   0.9403
   3.500   0.6114   0.00690   0.00244  -0.0457   0.4307   0.9548
   3.750   0.6397   0.00702   0.00253  -0.0457   0.4201   0.9670
   4.000   0.6724   0.00717   0.00265  -0.0466   0.4088   0.9745
   4.250   0.7035   0.00735   0.00277  -0.0473   0.3961   0.9821
   4.500   0.7405   0.00753   0.00289  -0.0492   0.3820   0.9857
   4.750   0.7783   0.00772   0.00303  -0.0514   0.3673   0.9894
   5.000   0.8151   0.00794   0.00318  -0.0534   0.3516   0.9933
   5.250   0.8534   0.00817   0.00332  -0.0558   0.3350   0.9953
   5.500   0.8890   0.00840   0.00348  -0.0576   0.3181   0.9974
   5.750   0.9238   0.00866   0.00365  -0.0592   0.3005   0.9994
   6.000   0.9493   0.00889   0.00381  -0.0589   0.2846   1.0000
   6.250   0.9687   0.00911   0.00396  -0.0572   0.2698   1.0000
   6.500   0.9880   0.00935   0.00413  -0.0556   0.2549   1.0000
   6.750   1.0073   0.00961   0.00433  -0.0539   0.2398   1.0000
   7.000   1.0265   0.00989   0.00453  -0.0523   0.2247   1.0000
   7.250   1.0459   0.01019   0.00475  -0.0506   0.2095   1.0000
   7.500   1.0652   0.01050   0.00498  -0.0490   0.1947   1.0000
   7.750   1.0848   0.01083   0.00524  -0.0475   0.1802   1.0000
   8.000   1.1048   0.01118   0.00551  -0.0461   0.1662   1.0000
   8.250   1.1251   0.01155   0.00581  -0.0448   0.1527   1.0000
   8.750   1.1661   0.01231   0.00644  -0.0423   0.1287   1.0000
   9.000   1.1866   0.01270   0.00677  -0.0411   0.1182   1.0000
   9.250   1.2069   0.01309   0.00712  -0.0398   0.1089   1.0000
   9.500   1.2267   0.01351   0.00749  -0.0385   0.1003   1.0000
   9.750   1.2454   0.01396   0.00790  -0.0371   0.0921   1.0000
  10.000   1.2639   0.01437   0.00828  -0.0356   0.0856   1.0000
  10.250   1.2810   0.01479   0.00868  -0.0338   0.0799   1.0000
  10.500   1.2969   0.01528   0.00914  -0.0319   0.0742   1.0000
  10.750   1.3144   0.01572   0.00958  -0.0304   0.0698   1.0000
  11.000   1.3300   0.01628   0.01011  -0.0286   0.0651   1.0000
  11.250   1.3471   0.01676   0.01061  -0.0271   0.0616   1.0000
  11.500   1.3619   0.01739   0.01122  -0.0253   0.0580   1.0000
  11.750   1.3786   0.01792   0.01178  -0.0239   0.0553   1.0000
  12.000   1.3925   0.01863   0.01247  -0.0222   0.0521   1.0000
  12.250   1.4083   0.01925   0.01312  -0.0208   0.0499   1.0000
  12.500   1.4222   0.01998   0.01386  -0.0192   0.0476   1.0000
  12.750   1.4348   0.02084   0.01473  -0.0176   0.0454   1.0000
  13.000   1.4494   0.02158   0.01551  -0.0163   0.0438   1.0000
  13.250   1.4617   0.02250   0.01645  -0.0149   0.0421   1.0000
  13.500   1.4714   0.02363   0.01760  -0.0133   0.0403   1.0000
  13.750   1.4850   0.02452   0.01854  -0.0122   0.0391   1.0000
  14.000   1.4962   0.02562   0.01967  -0.0110   0.0377   1.0000
  14.250   1.5049   0.02694   0.02102  -0.0097   0.0364   1.0000
  14.500   1.5127   0.02839   0.02251  -0.0085   0.0352   1.0000
  14.750   1.5232   0.02966   0.02385  -0.0076   0.0344   1.0000
  15.000   1.5317   0.03115   0.02539  -0.0067   0.0334   1.0000
  15.250   1.5381   0.03288   0.02716  -0.0058   0.0325   1.0000
  15.500   1.5410   0.03497   0.02929  -0.0050   0.0316   1.0000
  15.750   1.5455   0.03698   0.03137  -0.0044   0.0308   1.0000
  16.000   1.5522   0.03886   0.03332  -0.0039   0.0302   1.0000
  16.250   1.5568   0.04098   0.03551  -0.0036   0.0295   1.0000
  16.500   1.5592   0.04340   0.03799  -0.0033   0.0288   1.0000
  16.750   1.5592   0.04615   0.04080  -0.0032   0.0282   1.0000
  17.000   1.5558   0.04938   0.04410  -0.0032   0.0276   1.0000
  17.250   1.5519   0.05272   0.04752  -0.0034   0.0270   1.0000
  17.500   1.5526   0.05561   0.05049  -0.0037   0.0267   1.0000
  17.750   1.5516   0.05877   0.05374  -0.0041   0.0263   1.0000
  18.000   1.5490   0.06217   0.05722  -0.0047   0.0259   1.0000
  18.250   1.5445   0.06583   0.06097  -0.0053   0.0255   1.0000
  18.500   1.5385   0.06977   0.06499  -0.0062   0.0251   1.0000
  18.750   1.5303   0.07405   0.06936  -0.0072   0.0247   1.0000
  19.000   1.5201   0.07868   0.07407  -0.0084   0.0244   1.0000
  19.250   1.5069   0.08377   0.07925  -0.0098   0.0240   1.0000
