  
       XFOIL         Version 6.99
  
 Calculated polar for: NACA 2415                                       
  
 1 1 Reynolds number fixed          Mach number fixed         
  
 xtrf =   1.000 (top)        1.000 (bottom)  
 Mach =   0.000     Re =     0.885 e 6     Ncrit =   9.000
  
   alpha    CL        CD       CDp       CM     Top_Xtr  Bot_Xtr
  ------ -------- --------- --------- -------- -------- --------
 -18.750  -1.0850   0.09612   0.09279  -0.0406   1.0000   0.0229
 -18.500  -1.1033   0.08955   0.08612  -0.0441   1.0000   0.0230
 -18.250  -1.1226   0.08295   0.07942  -0.0477   1.0000   0.0232
 -18.000  -1.1429   0.07630   0.07266  -0.0513   1.0000   0.0233
 -17.750  -1.1625   0.06993   0.06617  -0.0547   1.0000   0.0234
 -17.500  -1.1805   0.06379   0.05991  -0.0581   1.0000   0.0235
 -17.250  -1.1957   0.05804   0.05403  -0.0613   1.0000   0.0237
 -17.000  -1.2075   0.05280   0.04867  -0.0643   1.0000   0.0238
 -16.750  -1.2153   0.04817   0.04392  -0.0670   1.0000   0.0240
 -16.500  -1.2195   0.04416   0.03978  -0.0693   1.0000   0.0242
 -16.250  -1.2201   0.04074   0.03624  -0.0712   1.0000   0.0243
 -16.000  -1.2286   0.03666   0.03205  -0.0731   1.0000   0.0246
 -15.750  -1.2335   0.03331   0.02861  -0.0742   1.0000   0.0249
 -15.500  -1.2332   0.03083   0.02605  -0.0746   1.0000   0.0253
 -15.250  -1.2292   0.02892   0.02408  -0.0744   1.0000   0.0256
 -15.000  -1.2228   0.02741   0.02249  -0.0737   1.0000   0.0259
 -14.750  -1.2154   0.02613   0.02115  -0.0727   1.0000   0.0263
 -14.500  -1.2073   0.02504   0.01999  -0.0713   1.0000   0.0267
 -14.250  -1.1993   0.02410   0.01899  -0.0695   1.0000   0.0271
 -14.000  -1.1920   0.02333   0.01815  -0.0671   1.0000   0.0275
 -13.750  -1.1885   0.02273   0.01748  -0.0636   1.0000   0.0278
 -13.500  -1.1877   0.02220   0.01688  -0.0593   1.0000   0.0281
 -13.250  -1.1905   0.02134   0.01599  -0.0547   1.0000   0.0286
 -13.000  -1.1869   0.02074   0.01537  -0.0509   1.0000   0.0291
 -12.750  -1.1798   0.02026   0.01486  -0.0476   1.0000   0.0296
 -12.500  -1.1708   0.01983   0.01440  -0.0445   1.0000   0.0302
 -12.250  -1.1521   0.01936   0.01388  -0.0433   0.9995   0.0309
 -12.000  -1.1215   0.01884   0.01330  -0.0444   0.9980   0.0316
 -11.750  -1.0923   0.01811   0.01252  -0.0455   0.9963   0.0325
 -11.500  -1.0618   0.01745   0.01186  -0.0467   0.9948   0.0336
 -11.250  -1.0293   0.01697   0.01135  -0.0481   0.9937   0.0347
 -11.000  -0.9982   0.01655   0.01089  -0.0491   0.9920   0.0357
 -10.750  -0.9688   0.01601   0.01030  -0.0499   0.9894   0.0369
 -10.500  -0.9378   0.01547   0.00977  -0.0510   0.9872   0.0384
 -10.250  -0.9047   0.01507   0.00935  -0.0524   0.9855   0.0398
 -10.000  -0.8704   0.01473   0.00896  -0.0539   0.9842   0.0410
  -9.750  -0.8372   0.01412   0.00837  -0.0555   0.9830   0.0431
  -9.500  -0.8019   0.01374   0.00799  -0.0573   0.9821   0.0450
  -9.250  -0.7722   0.01340   0.00761  -0.0578   0.9786   0.0468
  -9.000  -0.7421   0.01294   0.00718  -0.0585   0.9751   0.0492
  -8.750  -0.7097   0.01262   0.00684  -0.0595   0.9723   0.0514
  -8.500  -0.6783   0.01221   0.00642  -0.0604   0.9695   0.0540
  -8.250  -0.6524   0.01191   0.00613  -0.0600   0.9634   0.0567
  -8.000  -0.6250   0.01161   0.00581  -0.0599   0.9578   0.0595
  -7.750  -0.5982   0.01129   0.00550  -0.0597   0.9523   0.0629
  -7.500  -0.5728   0.01106   0.00525  -0.0591   0.9449   0.0659
  -7.250  -0.5464   0.01074   0.00494  -0.0587   0.9391   0.0703
  -7.000  -0.5207   0.01053   0.00472  -0.0582   0.9314   0.0742
  -6.750  -0.4946   0.01024   0.00446  -0.0578   0.9246   0.0794
  -6.500  -0.4682   0.01002   0.00423  -0.0574   0.9170   0.0845
  -6.250  -0.4417   0.00980   0.00401  -0.0570   0.9088   0.0906
  -6.000  -0.4151   0.00957   0.00380  -0.0567   0.9008   0.0974
  -5.750  -0.3882   0.00938   0.00360  -0.0564   0.8921   0.1044
  -5.500  -0.3613   0.00918   0.00342  -0.0561   0.8834   0.1130
  -5.250  -0.3345   0.00898   0.00323  -0.0558   0.8735   0.1224
  -5.000  -0.3074   0.00880   0.00307  -0.0556   0.8639   0.1326
  -4.750  -0.2802   0.00865   0.00291  -0.0553   0.8535   0.1433
  -4.500  -0.2529   0.00849   0.00277  -0.0551   0.8428   0.1553
  -4.250  -0.2259   0.00833   0.00263  -0.0548   0.8319   0.1690
  -4.000  -0.1986   0.00818   0.00250  -0.0546   0.8200   0.1836
  -3.750  -0.1713   0.00804   0.00238  -0.0544   0.8082   0.1989
  -3.500  -0.1441   0.00792   0.00227  -0.0542   0.7959   0.2153
  -3.250  -0.1167   0.00780   0.00218  -0.0540   0.7829   0.2327
  -3.000  -0.0893   0.00769   0.00209  -0.0538   0.7699   0.2510
  -2.750  -0.0620   0.00760   0.00201  -0.0536   0.7567   0.2703
  -2.250  -0.0073   0.00742   0.00187  -0.0532   0.7287   0.3120
  -2.000   0.0200   0.00732   0.00181  -0.0530   0.7148   0.3357
  -1.750   0.0471   0.00725   0.00176  -0.0528   0.7005   0.3608
  -1.500   0.0742   0.00717   0.00172  -0.0526   0.6861   0.3878
  -1.250   0.1012   0.00707   0.00168  -0.0523   0.6714   0.4211
  -1.000   0.1281   0.00697   0.00166  -0.0521   0.6572   0.4592
  -0.750   0.1550   0.00688   0.00165  -0.0518   0.6431   0.4987
  -0.500   0.1817   0.00681   0.00164  -0.0515   0.6290   0.5375
  -0.250   0.2085   0.00676   0.00165  -0.0512   0.6148   0.5745
   0.000   0.2355   0.00670   0.00166  -0.0509   0.6012   0.6100
   0.250   0.2624   0.00666   0.00169  -0.0506   0.5881   0.6439
   0.500   0.2891   0.00664   0.00172  -0.0503   0.5751   0.6764
   0.750   0.3160   0.00663   0.00176  -0.0500   0.5621   0.7088
   1.000   0.3428   0.00661   0.00180  -0.0496   0.5502   0.7407
   1.250   0.3693   0.00662   0.00186  -0.0492   0.5384   0.7712
   1.500   0.3960   0.00662   0.00192  -0.0487   0.5269   0.8017
   1.750   0.4224   0.00663   0.00199  -0.0482   0.5160   0.8308
   2.000   0.4484   0.00669   0.00207  -0.0476   0.5049   0.8585
   2.250   0.4750   0.00672   0.00216  -0.0471   0.4948   0.8835
   2.500   0.5007   0.00681   0.00225  -0.0464   0.4845   0.9062
   2.750   0.5272   0.00689   0.00235  -0.0459   0.4744   0.9259
   3.000   0.5540   0.00701   0.00245  -0.0454   0.4645   0.9426
   3.250   0.5822   0.00714   0.00255  -0.0453   0.4538   0.9564
   3.500   0.6113   0.00727   0.00266  -0.0454   0.4438   0.9683
   3.750   0.6449   0.00745   0.00278  -0.0466   0.4321   0.9753
   4.000   0.6782   0.00759   0.00289  -0.0477   0.4209   0.9823
   4.250   0.7167   0.00776   0.00301  -0.0500   0.4084   0.9854
   4.500   0.7550   0.00796   0.00315  -0.0523   0.3946   0.9893
   5.000   0.8326   0.00837   0.00342  -0.0571   0.3637   0.9958
   5.250   0.8693   0.00858   0.00356  -0.0591   0.3475   0.9982
   5.500   0.9036   0.00880   0.00371  -0.0606   0.3309   1.0000
   5.750   0.9238   0.00898   0.00384  -0.0592   0.3169   1.0000
   6.000   0.9436   0.00919   0.00398  -0.0576   0.3025   1.0000
   6.250   0.9632   0.00941   0.00414  -0.0560   0.2874   1.0000
   6.500   0.9827   0.00966   0.00432  -0.0544   0.2725   1.0000
   6.750   1.0022   0.00992   0.00451  -0.0528   0.2572   1.0000
   7.000   1.0217   0.01021   0.00472  -0.0512   0.2417   1.0000
   7.250   1.0411   0.01051   0.00495  -0.0496   0.2261   1.0000
   7.500   1.0606   0.01083   0.00519  -0.0480   0.2107   1.0000
   7.750   1.0805   0.01117   0.00546  -0.0466   0.1956   1.0000
   8.000   1.1005   0.01153   0.00574  -0.0452   0.1807   1.0000
   8.250   1.1207   0.01192   0.00605  -0.0438   0.1665   1.0000
   8.500   1.1408   0.01232   0.00638  -0.0425   0.1528   1.0000
   9.000   1.1808   0.01314   0.00707  -0.0400   0.1287   1.0000
   9.250   1.2006   0.01356   0.00745  -0.0387   0.1183   1.0000
   9.500   1.2198   0.01399   0.00784  -0.0373   0.1089   1.0000
   9.750   1.2380   0.01445   0.00825  -0.0358   0.1005   1.0000
  10.250   1.2710   0.01537   0.00911  -0.0321   0.0863   1.0000
  10.500   1.2871   0.01587   0.00959  -0.0303   0.0805   1.0000
  10.750   1.3028   0.01642   0.01012  -0.0285   0.0751   1.0000
  11.000   1.3194   0.01694   0.01064  -0.0269   0.0706   1.0000
  11.250   1.3337   0.01759   0.01127  -0.0251   0.0660   1.0000
  11.500   1.3502   0.01814   0.01184  -0.0236   0.0626   1.0000
  11.750   1.3639   0.01886   0.01255  -0.0219   0.0590   1.0000
  12.000   1.3792   0.01951   0.01322  -0.0204   0.0563   1.0000
  12.250   1.3929   0.02027   0.01399  -0.0188   0.0535   1.0000
  12.500   1.4055   0.02112   0.01486  -0.0172   0.0510   1.0000
  12.750   1.4195   0.02190   0.01568  -0.0158   0.0489   1.0000
  13.000   1.4306   0.02291   0.01669  -0.0143   0.0468   1.0000
  13.250   1.4418   0.02395   0.01777  -0.0129   0.0450   1.0000
  13.500   1.4543   0.02493   0.01880  -0.0117   0.0435   1.0000
  13.750   1.4641   0.02614   0.02003  -0.0104   0.0419   1.0000
  14.000   1.4703   0.02768   0.02161  -0.0089   0.0403   1.0000
  14.250   1.4821   0.02882   0.02281  -0.0080   0.0392   1.0000
  14.500   1.4914   0.03022   0.02426  -0.0071   0.0379   1.0000
  14.750   1.4979   0.03189   0.02597  -0.0061   0.0368   1.0000
  15.000   1.4999   0.03404   0.02816  -0.0051   0.0357   1.0000
  15.250   1.5071   0.03577   0.02997  -0.0045   0.0349   1.0000
  15.500   1.5137   0.03762   0.03189  -0.0040   0.0340   1.0000
  15.750   1.5183   0.03972   0.03405  -0.0035   0.0332   1.0000
  16.000   1.5204   0.04213   0.03652  -0.0032   0.0325   1.0000
  16.250   1.5189   0.04500   0.03945  -0.0030   0.0317   1.0000
  16.500   1.5154   0.04822   0.04275  -0.0030   0.0310   1.0000
  16.750   1.5188   0.05072   0.04533  -0.0031   0.0304   1.0000
  17.000   1.5194   0.05359   0.04829  -0.0033   0.0299   1.0000
  17.250   1.5189   0.05665   0.05143  -0.0036   0.0293   1.0000
  17.500   1.5159   0.06008   0.05493  -0.0041   0.0288   1.0000
  17.750   1.5106   0.06385   0.05878  -0.0048   0.0283   1.0000
  18.000   1.5022   0.06807   0.06307  -0.0056   0.0279   1.0000
  18.250   1.4902   0.07286   0.06795  -0.0067   0.0274   1.0000
  18.500   1.4808   0.07739   0.07258  -0.0079   0.0270   1.0000
  18.750   1.4760   0.08133   0.07662  -0.0089   0.0267   1.0000
  19.000   1.4694   0.08556   0.08095  -0.0101   0.0264   1.0000
  19.250   1.4618   0.09000   0.08548  -0.0114   0.0261   1.0000
