  
       XFOIL         Version 6.99
  
 Calculated polar for: NACA 2415                                       
  
 1 1 Reynolds number fixed          Mach number fixed         
  
 xtrf =   1.000 (top)        1.000 (bottom)  
 Mach =   0.000     Re =     0.590 e 6     Ncrit =   9.000
  
   alpha    CL        CD       CDp       CM     Top_Xtr  Bot_Xtr
  ------ -------- --------- --------- -------- -------- --------
 -18.750  -0.9860   0.11067   0.10734  -0.0345   1.0000   0.0266
 -18.500  -1.0101   0.10245   0.09896  -0.0393   1.0000   0.0267
 -18.250  -1.0316   0.09490   0.09128  -0.0437   1.0000   0.0269
 -18.000  -1.0509   0.08792   0.08416  -0.0477   1.0000   0.0271
 -17.750  -1.0676   0.08150   0.07761  -0.0515   1.0000   0.0272
 -17.500  -1.0832   0.07542   0.07139  -0.0550   1.0000   0.0274
 -17.250  -1.0968   0.06977   0.06561  -0.0583   1.0000   0.0276
 -17.000  -1.1088   0.06449   0.06018  -0.0614   1.0000   0.0277
 -16.750  -1.1186   0.05957   0.05513  -0.0642   1.0000   0.0279
 -16.500  -1.1272   0.05501   0.05043  -0.0668   1.0000   0.0281
 -16.250  -1.1354   0.05086   0.04622  -0.0685   1.0000   0.0284
 -16.000  -1.1399   0.04711   0.04240  -0.0704   1.0000   0.0287
 -15.750  -1.1418   0.04373   0.03894  -0.0720   1.0000   0.0290
 -15.500  -1.1414   0.04072   0.03585  -0.0734   1.0000   0.0293
 -15.250  -1.1395   0.03803   0.03308  -0.0745   1.0000   0.0296
 -15.000  -1.1365   0.03563   0.03059  -0.0752   1.0000   0.0300
 -14.750  -1.1325   0.03351   0.02838  -0.0754   1.0000   0.0304
 -14.500  -1.1276   0.03166   0.02643  -0.0753   1.0000   0.0309
 -14.250  -1.1214   0.03009   0.02475  -0.0747   1.0000   0.0314
 -14.000  -1.1139   0.02878   0.02332  -0.0738   1.0000   0.0318
 -13.750  -1.1119   0.02724   0.02171  -0.0720   1.0000   0.0323
 -13.500  -1.1099   0.02600   0.02044  -0.0696   1.0000   0.0328
 -13.250  -1.1073   0.02514   0.01955  -0.0666   1.0000   0.0333
 -13.000  -1.1088   0.02450   0.01888  -0.0623   1.0000   0.0338
 -12.750  -1.1074   0.02390   0.01824  -0.0583   1.0000   0.0342
 -12.500  -1.1031   0.02332   0.01760  -0.0547   1.0000   0.0348
 -12.250  -1.0976   0.02277   0.01699  -0.0512   1.0000   0.0354
 -12.000  -1.0904   0.02229   0.01642  -0.0479   1.0000   0.0360
 -11.750  -1.0849   0.02163   0.01571  -0.0444   1.0000   0.0366
 -11.500  -1.0794   0.02091   0.01498  -0.0409   1.0000   0.0373
 -11.250  -1.0667   0.02040   0.01445  -0.0387   0.9998   0.0382
 -11.000  -1.0348   0.01985   0.01386  -0.0401   0.9980   0.0395
 -10.750  -1.0022   0.01935   0.01328  -0.0415   0.9961   0.0407
 -10.500  -0.9713   0.01850   0.01242  -0.0429   0.9942   0.0422
 -10.250  -0.9389   0.01796   0.01186  -0.0444   0.9923   0.0437
 -10.000  -0.9077   0.01748   0.01134  -0.0455   0.9895   0.0453
  -9.750  -0.8758   0.01690   0.01071  -0.0467   0.9869   0.0471
  -9.500  -0.8422   0.01635   0.01018  -0.0484   0.9848   0.0491
  -9.250  -0.8067   0.01595   0.00974  -0.0502   0.9832   0.0513
  -9.000  -0.7716   0.01535   0.00913  -0.0521   0.9818   0.0537
  -8.750  -0.7426   0.01494   0.00872  -0.0526   0.9774   0.0561
  -8.500  -0.7084   0.01457   0.00830  -0.0540   0.9746   0.0588
  -8.250  -0.6733   0.01403   0.00780  -0.0559   0.9725   0.0623
  -8.000  -0.6361   0.01369   0.00743  -0.0579   0.9709   0.0655
  -7.750  -0.6010   0.01315   0.00694  -0.0596   0.9689   0.0700
  -7.250  -0.5433   0.01242   0.00621  -0.0601   0.9580   0.0787
  -7.000  -0.5114   0.01207   0.00585  -0.0609   0.9545   0.0839
  -6.750  -0.4871   0.01176   0.00557  -0.0601   0.9466   0.0894
  -6.500  -0.4590   0.01143   0.00525  -0.0601   0.9410   0.0956
  -6.250  -0.4324   0.01118   0.00500  -0.0597   0.9342   0.1022
  -6.000  -0.4066   0.01086   0.00473  -0.0592   0.9267   0.1103
  -5.750  -0.3797   0.01059   0.00446  -0.0589   0.9199   0.1189
  -5.500  -0.3537   0.01037   0.00425  -0.0584   0.9109   0.1280
  -5.250  -0.3268   0.01011   0.00402  -0.0581   0.9036   0.1391
  -5.000  -0.3009   0.00987   0.00382  -0.0576   0.8939   0.1510
  -4.750  -0.2739   0.00965   0.00362  -0.0573   0.8853   0.1640
  -4.500  -0.2474   0.00944   0.00344  -0.0569   0.8749   0.1780
  -4.250  -0.2205   0.00925   0.00328  -0.0566   0.8652   0.1933
  -4.000  -0.1937   0.00907   0.00312  -0.0563   0.8544   0.2098
  -3.750  -0.1667   0.00889   0.00298  -0.0560   0.8432   0.2274
  -3.500  -0.1397   0.00874   0.00284  -0.0557   0.8323   0.2462
  -3.250  -0.1128   0.00858   0.00273  -0.0554   0.8199   0.2662
  -3.000  -0.0857   0.00845   0.00262  -0.0551   0.8077   0.2872
  -2.750  -0.0586   0.00833   0.00251  -0.0548   0.7954   0.3094
  -2.500  -0.0318   0.00819   0.00242  -0.0545   0.7819   0.3330
  -2.250  -0.0049   0.00806   0.00234  -0.0542   0.7685   0.3588
  -2.000   0.0220   0.00794   0.00226  -0.0539   0.7551   0.3868
  -1.750   0.0484   0.00782   0.00219  -0.0535   0.7412   0.4198
  -1.500   0.0748   0.00768   0.00214  -0.0531   0.7267   0.4579
  -1.250   0.1012   0.00755   0.00211  -0.0527   0.7123   0.4989
  -1.000   0.1274   0.00745   0.00208  -0.0523   0.6981   0.5397
  -0.750   0.1536   0.00737   0.00207  -0.0518   0.6837   0.5787
  -0.500   0.1798   0.00731   0.00207  -0.0513   0.6692   0.6160
  -0.250   0.2062   0.00725   0.00208  -0.0509   0.6546   0.6521
   0.000   0.2325   0.00721   0.00210  -0.0504   0.6405   0.6864
   0.250   0.2585   0.00718   0.00213  -0.0498   0.6268   0.7197
   0.500   0.2844   0.00718   0.00217  -0.0492   0.6130   0.7522
   0.750   0.3107   0.00717   0.00222  -0.0486   0.5995   0.7840
   1.000   0.3366   0.00718   0.00229  -0.0480   0.5867   0.8143
   1.250   0.3624   0.00723   0.00236  -0.0473   0.5742   0.8435
   1.500   0.3881   0.00728   0.00244  -0.0465   0.5618   0.8697
   1.750   0.4141   0.00735   0.00254  -0.0458   0.5501   0.8943
   2.000   0.4399   0.00747   0.00263  -0.0451   0.5388   0.9160
   2.250   0.4669   0.00759   0.00273  -0.0446   0.5272   0.9344
   2.500   0.4960   0.00772   0.00284  -0.0446   0.5164   0.9494
   2.750   0.5276   0.00790   0.00296  -0.0452   0.5050   0.9609
   3.000   0.5610   0.00804   0.00307  -0.0462   0.4937   0.9705
   3.250   0.5974   0.00822   0.00319  -0.0480   0.4825   0.9774
   3.500   0.6353   0.00840   0.00331  -0.0501   0.4704   0.9827
   3.750   0.6762   0.00855   0.00343  -0.0529   0.4584   0.9863
   4.000   0.7156   0.00873   0.00356  -0.0554   0.4462   0.9912
   4.500   0.7995   0.00907   0.00380  -0.0615   0.4190   0.9986
   4.750   0.8294   0.00921   0.00390  -0.0621   0.4065   1.0000
   5.000   0.8498   0.00935   0.00399  -0.0606   0.3946   1.0000
   5.250   0.8703   0.00950   0.00409  -0.0592   0.3816   1.0000
   5.500   0.8910   0.00965   0.00421  -0.0578   0.3684   1.0000
   5.750   0.9113   0.00984   0.00434  -0.0564   0.3549   1.0000
   6.000   0.9312   0.01005   0.00450  -0.0548   0.3409   1.0000
   6.250   0.9510   0.01028   0.00466  -0.0533   0.3264   1.0000
   6.500   0.9707   0.01054   0.00485  -0.0517   0.3111   1.0000
   6.750   0.9907   0.01080   0.00505  -0.0502   0.2956   1.0000
   7.000   1.0106   0.01108   0.00527  -0.0487   0.2800   1.0000
   7.250   1.0304   0.01138   0.00551  -0.0472   0.2640   1.0000
   7.500   1.0503   0.01172   0.00577  -0.0457   0.2478   1.0000
   7.750   1.0702   0.01208   0.00606  -0.0443   0.2315   1.0000
   8.000   1.0901   0.01247   0.00637  -0.0429   0.2154   1.0000
   8.250   1.1097   0.01288   0.00671  -0.0416   0.1995   1.0000
   8.500   1.1291   0.01332   0.00707  -0.0402   0.1841   1.0000
   8.750   1.1482   0.01377   0.00745  -0.0387   0.1694   1.0000
   9.000   1.1669   0.01424   0.00786  -0.0373   0.1557   1.0000
   9.250   1.1850   0.01472   0.00828  -0.0358   0.1429   1.0000
   9.500   1.2021   0.01521   0.00872  -0.0340   0.1315   1.0000
   9.750   1.2175   0.01572   0.00919  -0.0320   0.1213   1.0000
  10.000   1.2324   0.01628   0.00971  -0.0300   0.1120   1.0000
  10.500   1.2626   0.01745   0.01083  -0.0263   0.0962   1.0000
  10.750   1.2770   0.01810   0.01146  -0.0245   0.0896   1.0000
  11.000   1.2905   0.01883   0.01216  -0.0226   0.0836   1.0000
  11.250   1.3053   0.01949   0.01284  -0.0210   0.0786   1.0000
  11.500   1.3169   0.02037   0.01370  -0.0191   0.0739   1.0000
  11.750   1.3315   0.02109   0.01446  -0.0176   0.0701   1.0000
  12.000   1.3424   0.02207   0.01543  -0.0158   0.0663   1.0000
  12.250   1.3552   0.02295   0.01635  -0.0144   0.0632   1.0000
  12.500   1.3663   0.02398   0.01740  -0.0128   0.0603   1.0000
  12.750   1.3745   0.02525   0.01869  -0.0112   0.0577   1.0000
  13.000   1.3866   0.02629   0.01979  -0.0100   0.0554   1.0000
  13.250   1.3953   0.02762   0.02115  -0.0087   0.0532   1.0000
  13.500   1.4006   0.02927   0.02283  -0.0073   0.0512   1.0000
  13.750   1.4111   0.03057   0.02420  -0.0064   0.0495   1.0000
  14.000   1.4185   0.03217   0.02585  -0.0055   0.0478   1.0000
  14.250   1.4215   0.03423   0.02794  -0.0045   0.0464   1.0000
  14.500   1.4251   0.03630   0.03009  -0.0037   0.0451   1.0000
  14.750   1.4318   0.03816   0.03203  -0.0032   0.0438   1.0000
  15.000   1.4364   0.04027   0.03421  -0.0027   0.0426   1.0000
  15.250   1.4376   0.04278   0.03676  -0.0024   0.0415   1.0000
  15.500   1.4327   0.04602   0.04006  -0.0022   0.0405   1.0000
  15.750   1.4361   0.04848   0.04262  -0.0021   0.0396   1.0000
  16.000   1.4384   0.05113   0.04536  -0.0022   0.0387   1.0000
  16.250   1.4387   0.05403   0.04834  -0.0024   0.0378   1.0000
  16.500   1.4373   0.05723   0.05161  -0.0028   0.0371   1.0000
  16.750   1.4328   0.06085   0.05529  -0.0033   0.0364   1.0000
  17.000   1.4240   0.06503   0.05954  -0.0040   0.0357   1.0000
  17.250   1.4198   0.06873   0.06333  -0.0047   0.0352   1.0000
  17.500   1.4179   0.07222   0.06692  -0.0054   0.0346   1.0000
  17.750   1.4148   0.07592   0.07072  -0.0063   0.0340   1.0000
  18.000   1.4107   0.07975   0.07464  -0.0073   0.0334   1.0000
  18.250   1.4060   0.08373   0.07870  -0.0084   0.0328   1.0000
  18.500   1.4003   0.08788   0.08292  -0.0096   0.0323   1.0000
  18.750   1.3927   0.09232   0.08741  -0.0109   0.0318   1.0000
  19.000   1.3831   0.09694   0.09207  -0.0123   0.0312   1.0000
  19.250   1.3784   0.10109   0.09633  -0.0137   0.0308   1.0000
