  
       XFOIL         Version 6.99
  
 Calculated polar for: NACA 2415                                       
  
 1 1 Reynolds number fixed          Mach number fixed         
  
 xtrf =   1.000 (top)        1.000 (bottom)  
 Mach =   0.000     Re =     1.121 e 6     Ncrit =   9.000  9.000
  
   alpha    CL        CD       CDp       CM     Top_Xtr  Bot_Xtr  Top_Itr  Bot_Itr
  ------ -------- --------- --------- -------- -------- -------- -------- --------
 -18.750  -1.1366   0.08878   0.06456  -0.0439   1.0000   0.0209   1.0000  95.9962
 -18.500  -1.1635   0.08120   0.05767  -0.0479   1.0000   0.0210   1.0000  96.0193
 -18.250  -1.1939   0.07324   0.05059  -0.0522   1.0000   0.0211   1.0000  96.0366
 -18.000  -1.2236   0.06543   0.04381  -0.0564   1.0000   0.0211   1.0000  96.0533
 -17.750  -1.2505   0.05797   0.03749  -0.0606   1.0000   0.0212   1.0000  96.0766
 -17.500  -1.2731   0.05117   0.03186  -0.0645   1.0000   0.0213   1.0000  96.1114
 -17.250  -1.2896   0.04533   0.02715  -0.0680   1.0000   0.0215   1.0000  96.1605
 -17.000  -1.2998   0.04062   0.02344  -0.0707   1.0000   0.0217   1.0000  96.2220
 -16.750  -1.3042   0.03691   0.02060  -0.0726   1.0000   0.0219   1.0000  96.2928
 -16.500  -1.3042   0.03399   0.01844  -0.0738   1.0000   0.0221   1.0000  96.3712
 -16.250  -1.3010   0.03164   0.01674  -0.0744   1.0000   0.0224   1.0000  96.4558
 -16.000  -1.2957   0.02970   0.01537  -0.0745   1.0000   0.0227   1.0000  96.5462
 -15.750  -1.2891   0.02805   0.01423  -0.0743   1.0000   0.0230   1.0000  96.6409
 -15.500  -1.2816   0.02663   0.01327  -0.0736   1.0000   0.0234   1.0000  96.7359
 -15.250  -1.2731   0.02542   0.01246  -0.0726   1.0000   0.0237   1.0000  96.8273
 -15.000  -1.2635   0.02440   0.01180  -0.0713   1.0000   0.0239   1.0000  96.9114
 -14.750  -1.2528   0.02355   0.01126  -0.0698   1.0000   0.0242   1.0000  96.9811
 -14.500  -1.2507   0.02246   0.01058  -0.0670   1.0000   0.0246   1.0000  97.0900
 -14.250  -1.2527   0.02163   0.01012  -0.0628   1.0000   0.0250   1.0000  97.2024
 -14.000  -1.2508   0.02100   0.00979  -0.0588   1.0000   0.0253   1.0000  97.3070
 -13.750  -1.2448   0.02047   0.00951  -0.0554   1.0000   0.0257   1.0000  97.4164
 -13.500  -1.2379   0.02000   0.00927  -0.0521   1.0000   0.0261   1.0000  97.5273
 -13.250  -1.2300   0.01957   0.00903  -0.0488   1.0000   0.0265   1.0000  97.6434
 -13.000  -1.2211   0.01916   0.00880  -0.0457   1.0000   0.0270   1.0000  97.7630
 -12.500  -1.1676   0.01805   0.00801  -0.0465   0.9978   0.0282   1.2434  98.1056
 -12.250  -1.1389   0.01736   0.00754  -0.0474   0.9962   0.0292   1.4224  98.3514
 -12.000  -1.1084   0.01686   0.00720  -0.0485   0.9947   0.0301   1.5835  98.5671
 -11.750  -1.0768   0.01642   0.00688  -0.0496   0.9934   0.0309   1.7260  98.7832
 -11.500  -1.0443   0.01603   0.00659  -0.0510   0.9924   0.0316   1.8445  98.9679
 -11.250  -1.0130   0.01539   0.00615  -0.0522   0.9914   0.0329   1.9561  99.2546
 -11.000  -0.9835   0.01493   0.00584  -0.0530   0.9893   0.0340   2.1402  99.5118
 -10.750  -0.9531   0.01456   0.00559  -0.0537   0.9870   0.0351   2.3400  99.7778
 -10.250  -0.8891   0.01368   0.00498  -0.0561   0.9835   0.0379   2.6325 100.3791
 -10.000  -0.8555   0.01330   0.00473  -0.0575   0.9822   0.0394   2.7423 100.6954
  -9.750  -0.8218   0.01299   0.00450  -0.0589   0.9808   0.0407   2.8672 100.9703
  -9.500  -0.7914   0.01254   0.00420  -0.0597   0.9784   0.0427   3.0620 101.3578
  -9.250  -0.7647   0.01222   0.00400  -0.0595   0.9734   0.0445   3.4416 101.7081
  -8.750  -0.7077   0.01157   0.00357  -0.0599   0.9653   0.0486   4.0480 102.4567
  -8.500  -0.6832   0.01132   0.00340  -0.0592   0.9582   0.0507   4.5301 102.8182
  -8.250  -0.6567   0.01103   0.00320  -0.0588   0.9525   0.0531   4.9203 103.2052
  -8.000  -0.6318   0.01076   0.00304  -0.0582   0.9454   0.0559   5.3824 103.6568
  -7.750  -0.6055   0.01055   0.00289  -0.0578   0.9385   0.0584   5.8167 104.0482
  -7.500  -0.5798   0.01026   0.00271  -0.0574   0.9317   0.0621   6.2376 104.5716
  -7.250  -0.5532   0.01007   0.00258  -0.0570   0.9243   0.0651   6.6852 104.9884
  -7.000  -0.5269   0.00981   0.00241  -0.0566   0.9176   0.0697   7.0860 105.5861
  -6.750  -0.5001   0.00962   0.00229  -0.0564   0.9095   0.0737   7.5563 106.0822
  -6.500  -0.4735   0.00940   0.00213  -0.0560   0.9016   0.0791   8.0144 106.7015
  -6.250  -0.4465   0.00920   0.00202  -0.0558   0.8928   0.0844   8.5142 107.2850
  -5.750  -0.3924   0.00882   0.00178  -0.0553   0.8751   0.0977   9.5139 108.5950
  -5.500  -0.3652   0.00867   0.00166  -0.0551   0.8655   0.1050  10.0498 109.2584
  -5.250  -0.3379   0.00850   0.00157  -0.0549   0.8552   0.1131  10.6221 109.9551
  -5.000  -0.3107   0.00833   0.00146  -0.0547   0.8451   0.1229  11.1806 110.7307
  -4.750  -0.2834   0.00818   0.00137  -0.0545   0.8338   0.1333  11.8072 111.5066
  -4.500  -0.2559   0.00804   0.00129  -0.0543   0.8227   0.1440  12.4189 112.2749
  -4.250  -0.2285   0.00793   0.00121  -0.0541   0.8110   0.1556  13.0606 113.0710
  -4.000  -0.2010   0.00779   0.00113  -0.0539   0.7986   0.1689  13.7423 113.9407
  -3.750  -0.1736   0.00766   0.00106  -0.0538   0.7863   0.1835  14.4158 114.8558
  -3.500  -0.1462   0.00756   0.00100  -0.0536   0.7736   0.1986  15.1144 115.7810
  -3.250  -0.1188   0.00745   0.00094  -0.0534   0.7599   0.2148  15.8601 116.7405
  -3.000  -0.0912   0.00735   0.00089  -0.0533   0.7466   0.2318  16.5869 117.7295
  -2.750  -0.0637   0.00727   0.00085  -0.0531   0.7331   0.2497  17.3269 118.7530
  -2.500  -0.0363   0.00719   0.00080  -0.0529   0.7190   0.2686  18.0991 119.8156
  -2.250  -0.0087   0.00712   0.00077  -0.0528   0.7046   0.2884  18.8846 120.9114
  -1.750   0.0463   0.00697   0.00071  -0.0525   0.6763   0.3321  20.4291 123.2915
  -1.500   0.0737   0.00691   0.00068  -0.0523   0.6620   0.3567  21.2127 124.6107
  -1.250   0.1010   0.00686   0.00066  -0.0521   0.6474   0.3826  22.0122 125.9929
  -1.000   0.1283   0.00676   0.00064  -0.0520   0.6331   0.4143  22.7904 127.6829
  -0.750   0.1555   0.00667   0.00063  -0.0518   0.6194   0.4517  23.5450 129.6771
  -0.500   0.1826   0.00659   0.00062  -0.0516   0.6058   0.4908  24.2900 131.7516
  -0.250   0.2096   0.00654   0.00062  -0.0514   0.5919   0.5286  25.0492 133.7495
   0.000   0.2369   0.00647   0.00063  -0.0512   0.5786   0.5649  25.7763 135.6586
   0.250   0.2642   0.00643   0.00064  -0.0510   0.5661   0.5991  26.4682 137.4458
   0.500   0.2913   0.00641   0.00066  -0.0507   0.5536   0.6317  27.1529 139.1495
   0.750   0.3185   0.00639   0.00068  -0.0505   0.5412   0.6646  27.8362 140.8587
   1.000   0.3458   0.00636   0.00070  -0.0503   0.5299   0.6959  28.4597 142.4882
   1.250   0.3728   0.00637   0.00072  -0.0500   0.5185   0.7267  29.0889 144.0876
   1.500   0.3999   0.00635   0.00075  -0.0497   0.5075   0.7582  29.6974 145.7186
   1.750   0.4269   0.00636   0.00079  -0.0494   0.4973   0.7878  30.2621 147.2564
   2.000   0.4535   0.00638   0.00083  -0.0490   0.4864   0.8175  30.8629 148.7992
   2.250   0.4803   0.00639   0.00087  -0.0486   0.4769   0.8453  31.3949 150.2512
   2.500   0.5065   0.00645   0.00092  -0.0480   0.4663   0.8717  31.9816 151.6392
   2.750   0.5332   0.00649   0.00097  -0.0476   0.4571   0.8956  32.4984 152.9147
   3.000   0.5591   0.00659   0.00102  -0.0470   0.4469   0.9167  33.0664 154.0744
   3.250   0.5856   0.00666   0.00107  -0.0464   0.4372   0.9348  33.6116 155.1148
   3.500   0.6121   0.00678   0.00112  -0.0460   0.4271   0.9504  34.1774 156.0613
   3.750   0.6400   0.00692   0.00117  -0.0458   0.4161   0.9632  34.8020 156.8932
   4.000   0.6714   0.00705   0.00123  -0.0464   0.4049   0.9718  35.4381 157.5111
   4.250   0.7020   0.00722   0.00128  -0.0470   0.3925   0.9800  36.1477 158.1136
   4.750   0.7732   0.00761   0.00142  -0.0503   0.3635   0.9890  37.8245 158.8560
   5.000   0.8113   0.00783   0.00151  -0.0526   0.3476   0.9921  38.7530 159.1457
   5.250   0.8496   0.00806   0.00159  -0.0550   0.3308   0.9944  39.7406 159.3948
   5.500   0.8852   0.00829   0.00167  -0.0568   0.3138   0.9967  40.7489 159.6410
   5.750   0.9196   0.00855   0.00176  -0.0583   0.2964   0.9987  41.7933 159.8635
   6.000   0.9504   0.00881   0.00185  -0.0591   0.2791   1.0000  42.8340 160.0000
   6.250   0.9699   0.00903   0.00190  -0.0575   0.2644   1.0000  43.7299 160.0000
   6.500   0.9892   0.00927   0.00196  -0.0559   0.2495   1.0000  44.6460 160.0000
   6.750   1.0085   0.00952   0.00204  -0.0542   0.2345   1.0000  45.5805 160.0000
   7.000   1.0278   0.00980   0.00212  -0.0525   0.2196   1.0000  46.5221 160.0000
   7.250   1.0472   0.01009   0.00221  -0.0509   0.2047   1.0000  47.4777 160.0000
   7.500   1.0667   0.01040   0.00232  -0.0493   0.1902   1.0000  48.4263 160.0000
   7.750   1.0863   0.01072   0.00243  -0.0478   0.1759   1.0000  49.3809 160.0000
   8.000   1.1065   0.01107   0.00256  -0.0464   0.1624   1.0000  50.3150 160.0000
   8.250   1.1269   0.01143   0.00270  -0.0451   0.1492   1.0000  51.2531 160.0000
   8.500   1.1474   0.01180   0.00285  -0.0439   0.1369   1.0000  52.1603 160.0000
   8.750   1.1679   0.01220   0.00301  -0.0426   0.1254   1.0000  53.0499 160.0000
   9.000   1.1883   0.01259   0.00318  -0.0414   0.1149   1.0000  53.9082 160.0000
   9.250   1.2090   0.01297   0.00334  -0.0402   0.1060   1.0000  54.6743 160.0000
   9.500   1.2293   0.01337   0.00351  -0.0390   0.0979   1.0000  55.4128 160.0000
   9.750   1.2486   0.01380   0.00369  -0.0377   0.0902   1.0000  56.1572 160.0000
  10.000   1.2670   0.01424   0.00388  -0.0362   0.0833   1.0000  56.8645 160.0000
  10.250   1.2848   0.01463   0.00404  -0.0345   0.0780   1.0000  57.4443 160.0000
  10.500   1.3009   0.01510   0.00425  -0.0326   0.0726   1.0000  58.0656 160.0000
  10.750   1.3181   0.01555   0.00444  -0.0310   0.0681   1.0000  58.6215 160.0000
  11.000   1.3345   0.01605   0.00467  -0.0293   0.0639   1.0000  59.1642 160.0000
  11.250   1.3510   0.01657   0.00491  -0.0277   0.0603   1.0000  59.6661 160.0000
  11.500   1.3669   0.01713   0.00517  -0.0261   0.0570   1.0000  60.1369 160.0000
  11.750   1.3830   0.01769   0.00543  -0.0246   0.0540   1.0000  60.5824 160.0000
  12.000   1.3973   0.01837   0.00577  -0.0229   0.0511   1.0000  61.0452 160.0000
  12.250   1.4134   0.01896   0.00605  -0.0215   0.0489   1.0000  61.4172 160.0000
  12.500   1.4269   0.01972   0.00643  -0.0198   0.0465   1.0000  61.8172 160.0000
  12.750   1.4410   0.02046   0.00682  -0.0184   0.0446   1.0000  62.1504 160.0000
  13.000   1.4551   0.02123   0.00721  -0.0170   0.0429   1.0000  62.4721 160.0000
  13.250   1.4669   0.02217   0.00772  -0.0155   0.0411   1.0000  62.8104 160.0000
  13.500   1.4790   0.02313   0.00824  -0.0141   0.0396   1.0000  63.1093 160.0000
  13.750   1.4918   0.02405   0.00875  -0.0129   0.0383   1.0000  63.3880 160.0000
  14.000   1.5025   0.02518   0.00938  -0.0116   0.0369   1.0000  63.6718 160.0000
  14.250   1.5102   0.02656   0.01020  -0.0102   0.0355   1.0000  63.9636 160.0000
  14.500   1.5214   0.02772   0.01087  -0.0091   0.0346   1.0000  64.1585 160.0000
  14.750   1.5315   0.02901   0.01163  -0.0082   0.0337   1.0000  64.3780 160.0000
  15.000   1.5397   0.03051   0.01254  -0.0072   0.0327   1.0000  64.5977 160.0000
  15.250   1.5452   0.03227   0.01364  -0.0062   0.0318   1.0000  64.8140 160.0000
  15.500   1.5486   0.03430   0.01495  -0.0054   0.0309   1.0000  65.0295 160.0000
  15.750   1.5568   0.03595   0.01599  -0.0048   0.0302   1.0000  65.1859 160.0000
  16.000   1.5629   0.03784   0.01720  -0.0043   0.0295   1.0000  65.3653 160.0000
  16.250   1.5670   0.03998   0.01861  -0.0038   0.0288   1.0000  65.5445 160.0000
  16.500   1.5689   0.04242   0.02025  -0.0035   0.0282   1.0000  65.7115 160.0000
  16.750   1.5677   0.04528   0.02223  -0.0033   0.0275   1.0000  65.8793 160.0000
  17.000   1.5647   0.04841   0.02445  -0.0033   0.0269   1.0000  66.0262 160.0000
  17.250   1.5671   0.05102   0.02626  -0.0034   0.0266   1.0000  66.1312 160.0000
  17.500   1.5675   0.05391   0.02831  -0.0037   0.0261   1.0000  66.2504 160.0000
  17.750   1.5663   0.05704   0.03057  -0.0040   0.0257   1.0000  66.3711 160.0000
  18.000   1.5632   0.06045   0.03307  -0.0045   0.0253   1.0000  66.4889 160.0000
  18.250   1.5584   0.06415   0.03583  -0.0051   0.0249   1.0000  66.5999 160.0000
  18.500   1.5516   0.06815   0.03888  -0.0059   0.0245   1.0000  66.7047 160.0000
  18.750   1.5422   0.07255   0.04231  -0.0069   0.0241   1.0000  66.8087 160.0000
  19.000   1.5295   0.07747   0.04626  -0.0081   0.0238   1.0000  66.9166 160.0000
  19.250   1.5152   0.08270   0.05057  -0.0096   0.0234   1.0000  67.0114 160.0000
