  
       XFOIL         Version 6.99
  
 Calculated polar for: NACA 2415                                       
  
 1 1 Reynolds number fixed          Mach number fixed         
  
 xtrf =   1.000 (top)        1.000 (bottom)  
 Mach =   0.000     Re =     1.000 e 6     Ncrit =   5.000  5.000
  
   alpha    CL        CD       CDp       CM     Top_Xtr  Bot_Xtr  Top_Itr  Bot_Itr
  ------ -------- --------- --------- -------- -------- -------- -------- --------
  -5.000  -0.3150   0.00914   0.00145  -0.0532   0.7591   0.0931  15.9075 108.1700
  -4.500  -0.2603   0.00889   0.00128  -0.0528   0.7332   0.1080  17.3222 109.5159
  -4.000  -0.2055   0.00869   0.00114  -0.0525   0.7059   0.1251  18.8158 110.9036
  -3.500  -0.1507   0.00850   0.00101  -0.0522   0.6788   0.1459  20.2938 112.4019
  -3.000  -0.0957   0.00835   0.00091  -0.0519   0.6507   0.1693  21.8311 113.9658
  -2.500  -0.0406   0.00820   0.00082  -0.0517   0.6240   0.1971  23.2915 115.6870
  -2.000   0.0146   0.00808   0.00076  -0.0515   0.5971   0.2275  24.7659 117.4819
  -1.500   0.0698   0.00799   0.00071  -0.0513   0.5719   0.2612  26.1463 119.3979
  -1.000   0.1253   0.00790   0.00068  -0.0511   0.5476   0.2984  27.4845 121.4592
  -0.500   0.1806   0.00783   0.00066  -0.0509   0.5244   0.3402  28.7609 123.7246
   0.000   0.2358   0.00775   0.00065  -0.0507   0.5029   0.3874  29.9480 126.2516
   0.500   0.2907   0.00764   0.00065  -0.0505   0.4831   0.4520  31.0485 129.6914
   1.000   0.3455   0.00755   0.00068  -0.0502   0.4642   0.5207  32.1005 133.3340
   1.500   0.4005   0.00750   0.00071  -0.0499   0.4457   0.5837  33.1318 136.6392
   2.000   0.4552   0.00749   0.00077  -0.0496   0.4273   0.6432  34.1708 139.7461
   2.500   0.5096   0.00751   0.00083  -0.0492   0.4081   0.7020  35.2562 142.8062
   3.000   0.5634   0.00756   0.00091  -0.0487   0.3866   0.7606  36.4889 145.8415
   3.500   0.6159   0.00768   0.00101  -0.0478   0.3620   0.8193  37.9113 148.8930
   4.000   0.6673   0.00785   0.00114  -0.0467   0.3363   0.8748  39.4177 151.8055
   4.500   0.7173   0.00815   0.00130  -0.0453   0.3080   0.9235  41.0946 154.4611
   5.000   0.7710   0.00857   0.00149  -0.0447   0.2773   0.9644  42.9457 156.9759
   5.500   0.8325   0.00911   0.00171  -0.0462   0.2442   0.9817  44.9753 158.2547
   6.000   0.8930   0.00970   0.00194  -0.0475   0.2113   0.9916  47.0504 159.0970
   6.500   0.9564   0.01035   0.00223  -0.0496   0.1792   0.9972  49.1597 159.6973
   7.000   1.0065   0.01100   0.00249  -0.0489   0.1516   1.0000  51.0740 160.0000
   7.500   1.0461   0.01160   0.00271  -0.0459   0.1294   1.0000  52.7346 160.0000
   8.000   1.0874   0.01226   0.00297  -0.0433   0.1104   1.0000  54.2886 160.0000
   8.500   1.1292   0.01296   0.00327  -0.0410   0.0939   1.0000  55.7946 160.0000
   9.000   1.1709   0.01368   0.00358  -0.0387   0.0809   1.0000  57.1185 160.0000
   9.500   1.2115   0.01443   0.00390  -0.0363   0.0704   1.0000  58.3419 160.0000
  10.000   1.2478   0.01521   0.00424  -0.0331   0.0619   1.0000  59.4390 160.0000
  10.500   1.2827   0.01607   0.00462  -0.0299   0.0552   1.0000  60.4089 160.0000
  11.000   1.3169   0.01703   0.00506  -0.0268   0.0495   1.0000  61.3119 160.0000
  11.500   1.3497   0.01812   0.00558  -0.0238   0.0447   1.0000  62.1369 160.0000
  12.000   1.3811   0.01935   0.00618  -0.0209   0.0408   1.0000  62.8738 160.0000
  12.500   1.4112   0.02072   0.00688  -0.0181   0.0375   1.0000  63.5515 160.0000
  13.000   1.4384   0.02234   0.00774  -0.0154   0.0347   1.0000  64.1396 160.0000
  13.500   1.4642   0.02417   0.00875  -0.0128   0.0324   1.0000  64.6783 160.0000
  14.000   1.4869   0.02635   0.00999  -0.0104   0.0303   1.0000  65.1750 160.0000
  14.500   1.5075   0.02883   0.01146  -0.0083   0.0284   1.0000  65.6595 160.0000
  15.000   1.5239   0.03184   0.01330  -0.0065   0.0268   1.0000  66.0528 160.0000
