  
       XFOIL         Version 6.99
  
 Calculated polar for: NACA 2415                                       
  
 1 1 Reynolds number fixed          Mach number fixed         
  
 xtrf =   1.000 (top)        1.000 (bottom)  
 Mach =   0.000     Re =     0.861 e 6     Ncrit =   5.000  5.000
  
   alpha    CL        CD       CDp       CM     Top_Xtr  Bot_Xtr  Top_Itr  Bot_Itr
  ------ -------- --------- --------- -------- -------- -------- -------- --------
 -18.750  -1.1020   0.09493   0.07043  -0.0404   1.0000   0.0188   1.0000  95.2869
 -18.500  -1.1411   0.08519   0.06120  -0.0457   1.0000   0.0188   1.0000  95.2851
 -18.250  -1.1807   0.07563   0.05247  -0.0508   1.0000   0.0188   1.0000  95.2786
 -18.000  -1.2176   0.06656   0.04446  -0.0558   1.0000   0.0187   1.0000  95.2756
 -17.750  -1.2465   0.05866   0.03770  -0.0603   1.0000   0.0188   1.0000  95.2873
 -17.500  -1.2674   0.05200   0.03215  -0.0643   1.0000   0.0189   1.0000  95.3149
 -17.250  -1.2810   0.04653   0.02772  -0.0676   1.0000   0.0190   1.0000  95.3573
 -17.000  -1.2891   0.04206   0.02419  -0.0702   1.0000   0.0192   1.0000  95.4108
 -16.750  -1.2928   0.03839   0.02135  -0.0721   1.0000   0.0193   1.0000  95.4730
 -16.500  -1.2933   0.03535   0.01906  -0.0734   1.0000   0.0195   1.0000  95.5424
 -16.250  -1.2913   0.03283   0.01721  -0.0741   1.0000   0.0198   1.0000  95.6183
 -16.000  -1.2874   0.03073   0.01570  -0.0744   1.0000   0.0200   1.0000  95.6981
 -15.750  -1.2819   0.02897   0.01447  -0.0741   1.0000   0.0203   1.0000  95.7802
 -15.500  -1.2751   0.02747   0.01344  -0.0735   1.0000   0.0205   1.0000  95.8617
 -15.250  -1.2673   0.02620   0.01259  -0.0726   1.0000   0.0208   1.0000  95.9393
 -15.000  -1.2590   0.02509   0.01187  -0.0712   1.0000   0.0210   1.0000  96.0135
 -14.750  -1.2526   0.02400   0.01117  -0.0694   1.0000   0.0213   1.0000  96.1174
 -14.500  -1.2457   0.02312   0.01064  -0.0672   1.0000   0.0217   1.0000  96.2188
 -14.250  -1.2408   0.02241   0.01024  -0.0641   1.0000   0.0220   1.0000  96.3165
 -14.000  -1.2380   0.02184   0.00994  -0.0603   1.0000   0.0223   1.0000  96.4151
 -13.750  -1.2304   0.02128   0.00964  -0.0573   1.0000   0.0227   1.0000  96.5356
 -13.500  -1.2226   0.02078   0.00937  -0.0541   1.0000   0.0231   1.0000  96.6627
 -13.250  -1.2020   0.02021   0.00899  -0.0535   0.9989   0.0236   1.1233  96.8227
 -13.000  -1.1754   0.01963   0.00858  -0.0540   0.9970   0.0241   1.3318  96.9748
 -12.750  -1.1490   0.01897   0.00812  -0.0545   0.9950   0.0248   1.5575  97.1516
 -12.500  -1.1213   0.01837   0.00771  -0.0552   0.9932   0.0254   1.7570  97.3368
 -12.250  -1.0924   0.01782   0.00732  -0.0561   0.9917   0.0262   1.9161  97.5361
 -12.000  -1.0642   0.01732   0.00698  -0.0567   0.9898   0.0269   2.0965  97.7388
 -11.750  -1.0368   0.01686   0.00666  -0.0570   0.9871   0.0276   2.3324  97.9246
 -11.500  -1.0085   0.01636   0.00632  -0.0576   0.9845   0.0284   2.5506  98.1372
 -11.250  -0.9797   0.01588   0.00599  -0.0583   0.9820   0.0294   2.7605  98.3962
 -11.000  -0.9499   0.01544   0.00569  -0.0591   0.9799   0.0305   2.9436  98.6680
 -10.750  -0.9235   0.01507   0.00544  -0.0590   0.9756   0.0314   3.2687  98.9001
 -10.500  -0.8968   0.01468   0.00517  -0.0591   0.9712   0.0323   3.6076  99.1245
 -10.250  -0.8685   0.01426   0.00490  -0.0594   0.9676   0.0335   3.8798  99.3978
 -10.000  -0.8423   0.01392   0.00467  -0.0593   0.9626   0.0347   4.2332  99.6789
  -9.750  -0.8161   0.01361   0.00446  -0.0591   0.9567   0.0359   4.6349  99.9575
  -9.500  -0.7892   0.01325   0.00421  -0.0590   0.9517   0.0374   4.9764 100.2793
  -9.250  -0.7642   0.01294   0.00401  -0.0585   0.9448   0.0389   5.4200 100.6078
  -9.000  -0.7380   0.01266   0.00382  -0.0583   0.9380   0.0404   5.8501 100.9123
  -8.750  -0.7123   0.01237   0.00362  -0.0579   0.9308   0.0420   6.2941 101.2248
  -8.500  -0.6866   0.01209   0.00343  -0.0575   0.9225   0.0440   6.7944 101.6073
  -8.250  -0.6604   0.01186   0.00326  -0.0571   0.9141   0.0459   7.2876 101.9774
  -8.000  -0.6346   0.01158   0.00307  -0.0567   0.9043   0.0482   7.8554 102.3811
  -7.750  -0.6083   0.01135   0.00291  -0.0564   0.8947   0.0505   8.4082 102.7854
  -7.500  -0.5821   0.01114   0.00275  -0.0560   0.8845   0.0529   8.9840 103.1832
  -7.250  -0.5556   0.01091   0.00260  -0.0557   0.8743   0.0560   9.5576 103.6768
  -7.000  -0.5289   0.01072   0.00245  -0.0554   0.8646   0.0590  10.1038 104.1215
  -6.750  -0.5022   0.01051   0.00231  -0.0552   0.8544   0.0625  10.6683 104.6172
  -6.500  -0.4752   0.01034   0.00219  -0.0549   0.8449   0.0660  11.1941 105.1098
  -6.250  -0.4484   0.01015   0.00206  -0.0547   0.8337   0.0705  11.8117 105.6870
  -6.000  -0.4213   0.00999   0.00194  -0.0545   0.8226   0.0747  12.4256 106.1952
  -5.750  -0.3944   0.00983   0.00182  -0.0542   0.8112   0.0800  13.0497 106.8024
  -5.500  -0.3673   0.00966   0.00172  -0.0540   0.7997   0.0855  13.6843 107.3988
  -5.250  -0.3400   0.00954   0.00162  -0.0538   0.7878   0.0912  14.3367 107.9845
  -5.000  -0.3131   0.00939   0.00152  -0.0536   0.7750   0.0984  15.0379 108.6677
  -4.750  -0.2858   0.00926   0.00143  -0.0534   0.7621   0.1055  15.7418 109.2992
  -4.500  -0.2584   0.00915   0.00134  -0.0532   0.7494   0.1134  16.4379 109.9760
  -4.250  -0.2313   0.00903   0.00126  -0.0530   0.7360   0.1226  17.1660 110.7078
  -4.000  -0.2041   0.00892   0.00119  -0.0528   0.7223   0.1322  17.9164 111.4272
  -3.750  -0.1766   0.00882   0.00112  -0.0527   0.7087   0.1422  18.6586 112.1510
  -3.500  -0.1493   0.00873   0.00106  -0.0525   0.6951   0.1536  19.4020 112.9376
  -3.250  -0.1221   0.00864   0.00100  -0.0523   0.6815   0.1662  20.1460 113.7609
  -3.000  -0.0948   0.00855   0.00095  -0.0521   0.6673   0.1791  20.9213 114.5841
  -2.750  -0.0673   0.00847   0.00090  -0.0520   0.6534   0.1930  21.6803 115.4357
  -2.500  -0.0398   0.00840   0.00086  -0.0519   0.6401   0.2075  22.4082 116.3087
  -2.250  -0.0124   0.00835   0.00083  -0.0517   0.6264   0.2228  23.1568 117.2082
  -2.000   0.0150   0.00829   0.00079  -0.0516   0.6127   0.2392  23.9071 118.1580
  -1.750   0.0426   0.00823   0.00077  -0.0514   0.5996   0.2566  24.6268 119.1401
  -1.500   0.0701   0.00818   0.00074  -0.0513   0.5869   0.2746  25.3209 120.1467
  -1.250   0.0975   0.00814   0.00073  -0.0512   0.5741   0.2938  26.0268 121.2054
  -1.000   0.1251   0.00808   0.00071  -0.0511   0.5615   0.3142  26.7179 122.3200
  -0.750   0.1526   0.00804   0.00070  -0.0509   0.5500   0.3355  27.3500 123.4740
  -0.500   0.1800   0.00801   0.00069  -0.0508   0.5379   0.3584  28.0156 124.7016
   0.000   0.2349   0.00790   0.00068  -0.0506   0.5161   0.4123  29.2213 127.5755
   0.250   0.2622   0.00784   0.00068  -0.0504   0.5052   0.4460  29.8222 129.3744
   0.500   0.2895   0.00778   0.00069  -0.0503   0.4953   0.4820  30.3731 131.2887
   0.750   0.3166   0.00775   0.00070  -0.0501   0.4850   0.5163  30.9436 133.1041
   1.000   0.3441   0.00770   0.00071  -0.0499   0.4755   0.5496  31.4700 134.8569
   1.250   0.3711   0.00769   0.00074  -0.0497   0.4658   0.5815  32.0131 136.5262
   1.500   0.3986   0.00766   0.00076  -0.0496   0.4566   0.6118  32.5256 138.1119
   1.750   0.4256   0.00767   0.00079  -0.0493   0.4471   0.6421  33.0564 139.6902
   2.000   0.4529   0.00765   0.00081  -0.0492   0.4379   0.6720  33.5713 141.2474
   2.250   0.4798   0.00767   0.00085  -0.0489   0.4284   0.7019  34.1055 142.7962
   2.500   0.5068   0.00767   0.00088  -0.0486   0.4187   0.7312  34.6560 144.3197
   2.750   0.5335   0.00770   0.00093  -0.0483   0.4091   0.7616  35.1985 145.8974
   3.000   0.5599   0.00773   0.00097  -0.0479   0.3980   0.7910  35.8341 147.4195
   3.250   0.5863   0.00778   0.00102  -0.0474   0.3872   0.8202  36.4508 148.9418
   3.500   0.6119   0.00785   0.00108  -0.0469   0.3755   0.8486  37.1302 150.4230
   3.750   0.6376   0.00794   0.00114  -0.0463   0.3626   0.8757  37.8783 151.8526
   4.000   0.6631   0.00805   0.00121  -0.0456   0.3498   0.9002  38.6273 153.1660
   4.250   0.6886   0.00819   0.00129  -0.0450   0.3364   0.9226  39.4126 154.4131
   4.500   0.7151   0.00838   0.00137  -0.0446   0.3221   0.9439  40.2560 155.6597
   4.750   0.7440   0.00860   0.00146  -0.0448   0.3068   0.9621  41.1687 156.8203
   5.000   0.7756   0.00885   0.00156  -0.0456   0.2905   0.9737  42.1475 157.6429
   5.250   0.8064   0.00911   0.00166  -0.0463   0.2739   0.9811  43.1471 158.2066
   5.500   0.8377   0.00939   0.00176  -0.0472   0.2571   0.9864  44.1767 158.6403
   5.750   0.8677   0.00968   0.00188  -0.0478   0.2404   0.9912  45.2107 159.0548
   6.000   0.9005   0.00999   0.00200  -0.0491   0.2231   0.9938  46.2968 159.3330
   6.250   0.9323   0.01032   0.00214  -0.0502   0.2063   0.9969  47.3762 159.6655
   6.500   0.9634   0.01066   0.00229  -0.0511   0.1897   0.9998  48.4565 159.9769
   6.750   0.9835   0.01096   0.00239  -0.0497   0.1762   1.0000  49.3622 160.0000
   7.000   1.0028   0.01127   0.00250  -0.0481   0.1635   1.0000  50.2347 160.0000
   7.250   1.0221   0.01159   0.00262  -0.0465   0.1511   1.0000  51.1151 160.0000
   7.750   1.0626   0.01225   0.00287  -0.0438   0.1285   1.0000  52.8097 160.0000
   8.000   1.0834   0.01259   0.00301  -0.0425   0.1187   1.0000  53.5934 160.0000
   8.250   1.1041   0.01295   0.00316  -0.0413   0.1096   1.0000  54.3591 160.0000
   8.500   1.1246   0.01333   0.00332  -0.0401   0.1011   1.0000  55.1088 160.0000
   8.750   1.1450   0.01371   0.00349  -0.0389   0.0933   1.0000  55.8516 160.0000
   9.000   1.1657   0.01407   0.00364  -0.0377   0.0869   1.0000  56.4963 160.0000
   9.250   1.1853   0.01448   0.00382  -0.0364   0.0807   1.0000  57.1453 160.0000
   9.500   1.2045   0.01488   0.00399  -0.0351   0.0750   1.0000  57.7906 160.0000
   9.750   1.2224   0.01527   0.00416  -0.0334   0.0705   1.0000  58.3217 160.0000
  10.000   1.2393   0.01571   0.00435  -0.0317   0.0660   1.0000  58.8851 160.0000
  10.250   1.2568   0.01614   0.00454  -0.0301   0.0623   1.0000  59.3899 160.0000
  10.500   1.2734   0.01664   0.00477  -0.0284   0.0584   1.0000  59.9226 160.0000
  10.750   1.2908   0.01711   0.00499  -0.0270   0.0556   1.0000  60.3464 160.0000
  11.000   1.3072   0.01765   0.00525  -0.0254   0.0525   1.0000  60.8147 160.0000
  11.250   1.3236   0.01820   0.00551  -0.0239   0.0500   1.0000  61.2298 160.0000
  11.500   1.3395   0.01879   0.00580  -0.0224   0.0474   1.0000  61.6689 160.0000
  11.750   1.3546   0.01945   0.00613  -0.0209   0.0452   1.0000  62.0508 160.0000
  12.000   1.3703   0.02008   0.00645  -0.0195   0.0434   1.0000  62.3860 160.0000
  12.250   1.3846   0.02082   0.00684  -0.0181   0.0415   1.0000  62.7487 160.0000
  12.500   1.3983   0.02161   0.00726  -0.0166   0.0397   1.0000  63.0789 160.0000
  12.750   1.4125   0.02240   0.00768  -0.0153   0.0382   1.0000  63.4034 160.0000
  13.000   1.4252   0.02331   0.00819  -0.0140   0.0366   1.0000  63.7290 160.0000
  13.250   1.4367   0.02434   0.00876  -0.0126   0.0353   1.0000  64.0106 160.0000
  13.500   1.4495   0.02530   0.00931  -0.0115   0.0342   1.0000  64.2456 160.0000
  13.750   1.4611   0.02640   0.00994  -0.0103   0.0331   1.0000  64.5041 160.0000
  14.000   1.4711   0.02763   0.01067  -0.0092   0.0320   1.0000  64.7630 160.0000
  14.250   1.4799   0.02902   0.01152  -0.0081   0.0309   1.0000  65.0081 160.0000
  14.500   1.4901   0.03034   0.01232  -0.0072   0.0301   1.0000  65.2190 160.0000
  14.750   1.4988   0.03182   0.01324  -0.0064   0.0292   1.0000  65.4482 160.0000
  15.000   1.5061   0.03347   0.01428  -0.0056   0.0284   1.0000  65.6632 160.0000
  15.250   1.5120   0.03530   0.01546  -0.0048   0.0276   1.0000  65.8546 160.0000
  15.500   1.5170   0.03728   0.01676  -0.0042   0.0269   1.0000  66.0254 160.0000
  15.750   1.5229   0.03922   0.01803  -0.0038   0.0264   1.0000  66.1723 160.0000
  16.000   1.5276   0.04134   0.01946  -0.0034   0.0258   1.0000  66.3315 160.0000
  16.250   1.5310   0.04367   0.02104  -0.0032   0.0253   1.0000  66.4943 160.0000
  16.500   1.5330   0.04620   0.02280  -0.0031   0.0247   1.0000  66.6543 160.0000
  16.750   1.5334   0.04898   0.02475  -0.0031   0.0242   1.0000  66.8069 160.0000
  17.000   1.5322   0.05201   0.02693  -0.0032   0.0236   1.0000  66.9531 160.0000
  17.250   1.5318   0.05503   0.02911  -0.0035   0.0232   1.0000  67.0743 160.0000
  17.500   1.5310   0.05812   0.03137  -0.0039   0.0228   1.0000  67.1947 160.0000
  17.750   1.5289   0.06145   0.03383  -0.0044   0.0224   1.0000  67.3174 160.0000
  18.000   1.5255   0.06499   0.03650  -0.0050   0.0220   1.0000  67.4346 160.0000
  18.250   1.5207   0.06875   0.03938  -0.0058   0.0217   1.0000  67.5434 160.0000
  18.500   1.5147   0.07273   0.04248  -0.0067   0.0214   1.0000  67.6456 160.0000
  18.750   1.5075   0.07694   0.04582  -0.0078   0.0211   1.0000  67.7418 160.0000
  19.000   1.4990   0.08137   0.04941  -0.0090   0.0208   1.0000  67.8322 160.0000
  19.250   1.4892   0.08604   0.05329  -0.0103   0.0205   1.0000  67.9172 160.0000
