  
       XFOIL         Version 6.99
  
 Calculated polar for: NACA 2415                                       
  
 1 1 Reynolds number fixed          Mach number fixed         
  
 xtrf =   1.000 (top)        1.000 (bottom)  
 Mach =   0.000     Re =     1.239 e 6     Ncrit =   5.000
  
   alpha    CL        CD       CDp       CM     Top_Xtr  Bot_Xtr
  ------ -------- --------- --------- -------- -------- --------
 -18.750  -1.3010   0.06468   0.06093  -0.0573   1.0000   0.0162
 -18.500  -1.3317   0.05665   0.05273  -0.0619   1.0000   0.0163
 -18.250  -1.3525   0.05016   0.04610  -0.0657   1.0000   0.0163
 -18.000  -1.3656   0.04495   0.04076  -0.0687   1.0000   0.0164
 -17.750  -1.3729   0.04071   0.03640  -0.0711   1.0000   0.0166
 -17.500  -1.3759   0.03725   0.03284  -0.0728   1.0000   0.0167
 -17.250  -1.3758   0.03436   0.02985  -0.0739   1.0000   0.0169
 -17.000  -1.3731   0.03195   0.02736  -0.0745   1.0000   0.0171
 -16.750  -1.3686   0.02993   0.02526  -0.0747   1.0000   0.0173
 -16.500  -1.3623   0.02823   0.02348  -0.0745   1.0000   0.0175
 -16.250  -1.3547   0.02679   0.02197  -0.0740   1.0000   0.0178
 -16.000  -1.3458   0.02555   0.02066  -0.0732   1.0000   0.0179
 -15.750  -1.3375   0.02439   0.01944  -0.0720   1.0000   0.0182
 -15.500  -1.3295   0.02332   0.01831  -0.0705   1.0000   0.0185
 -15.250  -1.3207   0.02243   0.01737  -0.0686   1.0000   0.0188
 -15.000  -1.3121   0.02167   0.01657  -0.0664   1.0000   0.0191
 -14.750  -1.3060   0.02105   0.01591  -0.0634   1.0000   0.0194
 -14.500  -1.3007   0.02053   0.01535  -0.0599   1.0000   0.0196
 -14.250  -1.2921   0.02003   0.01481  -0.0569   1.0000   0.0199
 -14.000  -1.2760   0.01950   0.01425  -0.0554   0.9994   0.0203
 -13.750  -1.2501   0.01893   0.01363  -0.0558   0.9978   0.0207
 -13.500  -1.2233   0.01840   0.01306  -0.0562   0.9961   0.0210
 -13.250  -1.1965   0.01780   0.01243  -0.0568   0.9946   0.0216
 -13.000  -1.1685   0.01724   0.01185  -0.0575   0.9935   0.0222
 -12.750  -1.1419   0.01675   0.01133  -0.0578   0.9915   0.0229
 -12.500  -1.1149   0.01629   0.01085  -0.0581   0.9890   0.0235
 -12.250  -1.0872   0.01587   0.01039  -0.0585   0.9864   0.0241
 -12.000  -1.0589   0.01544   0.00994  -0.0590   0.9840   0.0246
 -11.750  -1.0302   0.01497   0.00946  -0.0596   0.9819   0.0254
 -11.500  -1.0056   0.01459   0.00906  -0.0592   0.9772   0.0262
 -11.250  -0.9790   0.01422   0.00867  -0.0593   0.9729   0.0269
 -11.000  -0.9513   0.01388   0.00830  -0.0595   0.9693   0.0277
 -10.750  -0.9266   0.01354   0.00794  -0.0590   0.9637   0.0286
 -10.500  -0.9013   0.01319   0.00758  -0.0587   0.9579   0.0297
 -10.250  -0.8756   0.01288   0.00726  -0.0583   0.9524   0.0307
 -10.000  -0.8503   0.01261   0.00695  -0.0579   0.9455   0.0316
  -9.750  -0.8249   0.01232   0.00663  -0.0575   0.9389   0.0326
  -9.500  -0.7995   0.01203   0.00633  -0.0571   0.9315   0.0339
  -9.250  -0.7739   0.01178   0.00605  -0.0566   0.9234   0.0353
  -9.000  -0.7478   0.01154   0.00579  -0.0563   0.9151   0.0366
  -8.750  -0.7222   0.01129   0.00550  -0.0559   0.9056   0.0383
  -8.500  -0.6959   0.01106   0.00525  -0.0556   0.8954   0.0399
  -8.250  -0.6696   0.01087   0.00501  -0.0552   0.8849   0.0413
  -8.000  -0.6433   0.01064   0.00476  -0.0549   0.8735   0.0434
  -7.750  -0.6166   0.01045   0.00454  -0.0546   0.8633   0.0456
  -7.500  -0.5900   0.01026   0.00432  -0.0544   0.8527   0.0479
  -7.250  -0.5629   0.01007   0.00412  -0.0542   0.8432   0.0504
  -7.000  -0.5359   0.00992   0.00392  -0.0540   0.8326   0.0528
  -6.750  -0.5089   0.00973   0.00373  -0.0538   0.8211   0.0562
  -6.500  -0.4817   0.00959   0.00355  -0.0536   0.8099   0.0592
  -6.250  -0.4546   0.00943   0.00337  -0.0534   0.7985   0.0629
  -6.000  -0.4271   0.00929   0.00321  -0.0532   0.7872   0.0668
  -5.750  -0.3999   0.00915   0.00305  -0.0531   0.7749   0.0714
  -5.500  -0.3726   0.00904   0.00290  -0.0529   0.7616   0.0757
  -5.250  -0.3451   0.00891   0.00276  -0.0528   0.7491   0.0812
  -5.000  -0.3177   0.00879   0.00262  -0.0526   0.7363   0.0871
  -4.750  -0.2902   0.00870   0.00250  -0.0525   0.7226   0.0929
  -4.500  -0.2627   0.00858   0.00238  -0.0523   0.7091   0.1004
  -4.250  -0.2351   0.00848   0.00227  -0.0522   0.6960   0.1081
  -4.000  -0.2075   0.00840   0.00217  -0.0521   0.6823   0.1159
  -3.750  -0.1800   0.00831   0.00207  -0.0520   0.6685   0.1252
  -3.500  -0.1523   0.00822   0.00198  -0.0519   0.6546   0.1354
  -3.250  -0.1246   0.00814   0.00190  -0.0518   0.6411   0.1457
  -3.000  -0.0969   0.00809   0.00183  -0.0517   0.6279   0.1566
  -2.500  -0.0414   0.00794   0.00170  -0.0515   0.6010   0.1828
  -2.250  -0.0136   0.00789   0.00165  -0.0514   0.5881   0.1965
  -2.000   0.0141   0.00784   0.00161  -0.0514   0.5752   0.2109
  -1.750   0.0420   0.00779   0.00157  -0.0513   0.5624   0.2261
  -1.500   0.0699   0.00774   0.00154  -0.0512   0.5507   0.2424
  -1.250   0.0977   0.00771   0.00151  -0.0512   0.5388   0.2589
  -1.000   0.1256   0.00766   0.00149  -0.0511   0.5272   0.2773
  -0.750   0.1536   0.00763   0.00148  -0.0511   0.5169   0.2956
  -0.500   0.1814   0.00760   0.00147  -0.0510   0.5054   0.3150
  -0.250   0.2094   0.00756   0.00147  -0.0510   0.4958   0.3364
   0.000   0.2371   0.00754   0.00147  -0.0509   0.4854   0.3590
   0.250   0.2652   0.00749   0.00148  -0.0509   0.4762   0.3824
   0.500   0.2927   0.00745   0.00149  -0.0508   0.4664   0.4107
   0.750   0.3205   0.00739   0.00151  -0.0508   0.4575   0.4437
   1.000   0.3480   0.00736   0.00154  -0.0507   0.4482   0.4781
   1.250   0.3757   0.00731   0.00157  -0.0506   0.4395   0.5121
   1.500   0.4032   0.00730   0.00162  -0.0505   0.4303   0.5426
   1.750   0.4310   0.00728   0.00166  -0.0504   0.4212   0.5730
   2.000   0.4584   0.00728   0.00172  -0.0503   0.4121   0.6031
   2.250   0.4860   0.00729   0.00178  -0.0502   0.4019   0.6309
   2.500   0.5133   0.00730   0.00184  -0.0500   0.3917   0.6591
   2.750   0.5404   0.00735   0.00192  -0.0498   0.3800   0.6885
   3.000   0.5675   0.00737   0.00200  -0.0496   0.3688   0.7169
   3.250   0.5944   0.00742   0.00209  -0.0493   0.3567   0.7460
   3.500   0.6207   0.00749   0.00220  -0.0490   0.3433   0.7751
   3.750   0.6470   0.00758   0.00231  -0.0486   0.3296   0.8043
   4.000   0.6729   0.00766   0.00243  -0.0481   0.3160   0.8326
   4.250   0.6985   0.00777   0.00256  -0.0476   0.3020   0.8608
   4.500   0.7236   0.00790   0.00271  -0.0469   0.2876   0.8870
   4.750   0.7481   0.00805   0.00287  -0.0461   0.2730   0.9141
   5.000   0.7724   0.00824   0.00305  -0.0453   0.2579   0.9392
   5.250   0.7988   0.00847   0.00323  -0.0449   0.2424   0.9598
   5.500   0.8277   0.00873   0.00342  -0.0452   0.2265   0.9724
   5.750   0.8561   0.00901   0.00362  -0.0454   0.2109   0.9808
   6.000   0.8871   0.00930   0.00383  -0.0462   0.1950   0.9855
   6.250   0.9165   0.00961   0.00405  -0.0468   0.1796   0.9905
   6.500   0.9465   0.00992   0.00429  -0.0474   0.1650   0.9941
   6.750   0.9778   0.01026   0.00454  -0.0484   0.1507   0.9964
   7.000   1.0084   0.01060   0.00481  -0.0493   0.1375   0.9991
   7.250   1.0319   0.01092   0.00506  -0.0485   0.1260   1.0000
   7.500   1.0516   0.01121   0.00529  -0.0470   0.1163   1.0000
   7.750   1.0721   0.01149   0.00553  -0.0457   0.1077   1.0000
   8.000   1.0930   0.01180   0.00580  -0.0444   0.0997   1.0000
   8.250   1.1139   0.01214   0.00608  -0.0432   0.0917   1.0000
   8.500   1.1354   0.01245   0.00636  -0.0421   0.0851   1.0000
   8.750   1.1569   0.01278   0.00666  -0.0410   0.0791   1.0000
   9.000   1.1778   0.01314   0.00698  -0.0399   0.0731   1.0000
   9.250   1.1992   0.01347   0.00729  -0.0389   0.0685   1.0000
   9.500   1.2198   0.01383   0.00763  -0.0377   0.0641   1.0000
   9.750   1.2398   0.01420   0.00798  -0.0364   0.0598   1.0000
  10.000   1.2585   0.01456   0.00833  -0.0350   0.0565   1.0000
  10.250   1.2764   0.01495   0.00871  -0.0333   0.0534   1.0000
  10.500   1.2941   0.01535   0.00911  -0.0317   0.0505   1.0000
  10.750   1.3119   0.01578   0.00953  -0.0302   0.0478   1.0000
  11.000   1.3290   0.01625   0.01000  -0.0287   0.0452   1.0000
  11.250   1.3469   0.01670   0.01046  -0.0273   0.0433   1.0000
  11.500   1.3634   0.01723   0.01099  -0.0257   0.0412   1.0000
  11.750   1.3801   0.01775   0.01153  -0.0243   0.0394   1.0000
  12.000   1.3965   0.01832   0.01210  -0.0229   0.0376   1.0000
  12.250   1.4114   0.01897   0.01277  -0.0214   0.0358   1.0000
  12.500   1.4272   0.01959   0.01341  -0.0200   0.0347   1.0000
  12.750   1.4424   0.02027   0.01411  -0.0187   0.0334   1.0000
  13.000   1.4563   0.02104   0.01490  -0.0173   0.0321   1.0000
  13.250   1.4696   0.02188   0.01576  -0.0159   0.0309   1.0000
  13.500   1.4836   0.02270   0.01661  -0.0147   0.0300   1.0000
  13.750   1.4963   0.02363   0.01758  -0.0134   0.0289   1.0000
  14.000   1.5076   0.02468   0.01865  -0.0121   0.0279   1.0000
  14.250   1.5187   0.02580   0.01981  -0.0110   0.0270   1.0000
  14.500   1.5304   0.02691   0.02096  -0.0099   0.0264   1.0000
  14.750   1.5408   0.02813   0.02223  -0.0089   0.0257   1.0000
  15.000   1.5502   0.02949   0.02363  -0.0079   0.0250   1.0000
  15.250   1.5581   0.03102   0.02520  -0.0070   0.0243   1.0000
  15.500   1.5649   0.03270   0.02692  -0.0062   0.0236   1.0000
  15.750   1.5727   0.03432   0.02860  -0.0055   0.0231   1.0000
  16.000   1.5794   0.03610   0.03044  -0.0049   0.0225   1.0000
  16.250   1.5849   0.03806   0.03245  -0.0044   0.0220   1.0000
  16.500   1.5892   0.04019   0.03464  -0.0040   0.0215   1.0000
  16.750   1.5920   0.04252   0.03702  -0.0036   0.0210   1.0000
  17.000   1.5936   0.04505   0.03962  -0.0035   0.0206   1.0000
  17.250   1.5949   0.04770   0.04234  -0.0034   0.0202   1.0000
  17.500   1.5964   0.05038   0.04509  -0.0035   0.0199   1.0000
  17.750   1.5966   0.05324   0.04803  -0.0037   0.0197   1.0000
  18.000   1.5956   0.05632   0.05118  -0.0040   0.0193   1.0000
  18.250   1.5934   0.05961   0.05455  -0.0044   0.0190   1.0000
  18.500   1.5898   0.06310   0.05811  -0.0050   0.0187   1.0000
  18.750   1.5847   0.06682   0.06192  -0.0057   0.0184   1.0000
  19.000   1.5783   0.07079   0.06596  -0.0065   0.0181   1.0000
  19.250   1.5705   0.07500   0.07026  -0.0075   0.0178   1.0000
