  
       XFOIL         Version 6.99
  
 Calculated polar for: NACA 2415                                       
  
 1 1 Reynolds number fixed          Mach number fixed         
  
 xtrf =   1.000 (top)        1.000 (bottom)  
 Mach =   0.000     Re =     0.493 e 6     Ncrit =   9.000
  
   alpha    CL        CD       CDp       CM     Top_Xtr  Bot_Xtr
  ------ -------- --------- --------- -------- -------- --------
 -18.750  -0.6013   0.20986   0.20711   0.0140   1.0000   0.0307
 -18.250  -0.9712   0.10475   0.10121  -0.0391   1.0000   0.0289
 -18.000  -0.9967   0.09629   0.09260  -0.0441   1.0000   0.0291
 -17.750  -1.0160   0.08922   0.08541  -0.0483   1.0000   0.0292
 -17.500  -1.0326   0.08274   0.07880  -0.0522   1.0000   0.0294
 -17.250  -1.0476   0.07669   0.07263  -0.0558   1.0000   0.0296
 -17.000  -1.0612   0.07102   0.06684  -0.0591   1.0000   0.0298
 -16.750  -1.0731   0.06575   0.06144  -0.0622   1.0000   0.0300
 -16.500  -1.0833   0.06082   0.05638  -0.0651   1.0000   0.0302
 -16.250  -1.0917   0.05623   0.05166  -0.0678   1.0000   0.0305
 -16.000  -1.0984   0.05200   0.04729  -0.0702   1.0000   0.0308
 -15.750  -1.1033   0.04813   0.04328  -0.0723   1.0000   0.0311
 -15.500  -1.1061   0.04468   0.03969  -0.0740   1.0000   0.0314
 -15.250  -1.1072   0.04161   0.03646  -0.0754   1.0000   0.0317
 -15.000  -1.1073   0.03886   0.03357  -0.0762   1.0000   0.0320
 -14.750  -1.1069   0.03635   0.03102  -0.0762   1.0000   0.0325
 -14.500  -1.1028   0.03438   0.02902  -0.0762   1.0000   0.0330
 -14.250  -1.0971   0.03271   0.02729  -0.0758   1.0000   0.0335
 -14.000  -1.0911   0.03122   0.02573  -0.0751   1.0000   0.0340
 -13.750  -1.0852   0.02987   0.02430  -0.0740   1.0000   0.0346
 -13.500  -1.0796   0.02866   0.02300  -0.0723   1.0000   0.0352
 -13.250  -1.0748   0.02761   0.02184  -0.0701   1.0000   0.0357
 -13.000  -1.0719   0.02679   0.02091  -0.0670   1.0000   0.0362
 -12.750  -1.0767   0.02583   0.01991  -0.0624   1.0000   0.0366
 -12.500  -1.0774   0.02498   0.01905  -0.0583   1.0000   0.0372
 -12.250  -1.0737   0.02433   0.01838  -0.0547   1.0000   0.0377
 -12.000  -1.0683   0.02376   0.01778  -0.0513   1.0000   0.0384
 -11.750  -1.0615   0.02322   0.01719  -0.0480   1.0000   0.0391
 -11.500  -1.0534   0.02271   0.01661  -0.0449   1.0000   0.0400
 -11.250  -1.0435   0.02225   0.01606  -0.0420   1.0000   0.0408
 -11.000  -1.0363   0.02149   0.01527  -0.0388   1.0000   0.0417
 -10.750  -1.0246   0.02087   0.01466  -0.0365   0.9998   0.0426
 -10.500  -0.9923   0.02027   0.01402  -0.0380   0.9978   0.0441
 -10.250  -0.9591   0.01971   0.01339  -0.0396   0.9956   0.0456
 -10.000  -0.9267   0.01893   0.01257  -0.0412   0.9937   0.0473
  -9.750  -0.8950   0.01837   0.01202  -0.0425   0.9911   0.0491
  -9.500  -0.8622   0.01792   0.01151  -0.0439   0.9881   0.0512
  -9.250  -0.8294   0.01723   0.01081  -0.0454   0.9855   0.0534
  -9.000  -0.7942   0.01673   0.01031  -0.0473   0.9835   0.0558
  -8.750  -0.7570   0.01637   0.00988  -0.0494   0.9820   0.0584
  -8.500  -0.7287   0.01572   0.00927  -0.0499   0.9774   0.0613
  -8.250  -0.6942   0.01533   0.00885  -0.0515   0.9743   0.0645
  -8.000  -0.6587   0.01476   0.00830  -0.0534   0.9720   0.0682
  -7.750  -0.6204   0.01437   0.00790  -0.0557   0.9704   0.0724
  -7.500  -0.5828   0.01384   0.00740  -0.0579   0.9689   0.0773
  -7.250  -0.5545   0.01353   0.00706  -0.0580   0.9626   0.0817
  -7.000  -0.5218   0.01304   0.00662  -0.0591   0.9586   0.0876
  -6.750  -0.4877   0.01265   0.00623  -0.0605   0.9555   0.0939
  -6.500  -0.4612   0.01232   0.00593  -0.0601   0.9487   0.1004
  -6.250  -0.4323   0.01195   0.00559  -0.0603   0.9429   0.1081
  -6.000  -0.4024   0.01163   0.00527  -0.0606   0.9383   0.1165
  -5.750  -0.3778   0.01135   0.00503  -0.0599   0.9296   0.1255
  -5.500  -0.3499   0.01102   0.00474  -0.0598   0.9234   0.1362
  -5.250  -0.3245   0.01076   0.00451  -0.0591   0.9144   0.1473
  -5.000  -0.2973   0.01050   0.00426  -0.0588   0.9069   0.1599
  -4.750  -0.2713   0.01027   0.00407  -0.0584   0.8977   0.1734
  -4.500  -0.2442   0.01003   0.00385  -0.0580   0.8890   0.1885
  -4.250  -0.2181   0.00982   0.00368  -0.0575   0.8786   0.2047
  -4.000  -0.1909   0.00960   0.00349  -0.0572   0.8696   0.2223
  -3.750  -0.1646   0.00940   0.00334  -0.0568   0.8580   0.2410
  -3.500  -0.1378   0.00921   0.00319  -0.0565   0.8473   0.2609
  -3.250  -0.1109   0.00904   0.00306  -0.0561   0.8358   0.2821
  -3.000  -0.0842   0.00888   0.00294  -0.0558   0.8236   0.3047
  -2.750  -0.0572   0.00874   0.00282  -0.0554   0.8117   0.3282
  -2.500  -0.0306   0.00858   0.00271  -0.0551   0.7989   0.3537
  -2.250  -0.0039   0.00843   0.00262  -0.0547   0.7854   0.3821
  -2.000   0.0225   0.00827   0.00253  -0.0543   0.7723   0.4139
  -1.750   0.0487   0.00812   0.00246  -0.0538   0.7588   0.4516
  -1.500   0.0748   0.00798   0.00241  -0.0534   0.7444   0.4931
  -1.250   0.1009   0.00785   0.00237  -0.0529   0.7301   0.5346
  -1.000   0.1270   0.00775   0.00235  -0.0524   0.7158   0.5748
  -0.750   0.1529   0.00767   0.00234  -0.0518   0.7017   0.6136
  -0.500   0.1789   0.00762   0.00233  -0.0512   0.6871   0.6505
  -0.250   0.2049   0.00755   0.00235  -0.0506   0.6724   0.6859
   0.000   0.2308   0.00751   0.00237  -0.0500   0.6581   0.7200
   0.250   0.2567   0.00750   0.00241  -0.0493   0.6442   0.7528
   0.500   0.2824   0.00751   0.00245  -0.0486   0.6304   0.7851
   0.750   0.3080   0.00752   0.00251  -0.0479   0.6166   0.8154
   1.000   0.3338   0.00755   0.00258  -0.0471   0.6034   0.8446
   1.250   0.3594   0.00762   0.00267  -0.0463   0.5908   0.8710
   1.500   0.3850   0.00772   0.00276  -0.0455   0.5781   0.8954
   1.750   0.4115   0.00782   0.00286  -0.0448   0.5659   0.9169
   2.000   0.4388   0.00796   0.00296  -0.0444   0.5542   0.9352
   2.250   0.4688   0.00813   0.00307  -0.0446   0.5422   0.9498
   2.500   0.5026   0.00827   0.00319  -0.0456   0.5304   0.9608
   2.750   0.5368   0.00845   0.00331  -0.0468   0.5189   0.9704
   3.000   0.5756   0.00864   0.00342  -0.0490   0.5066   0.9768
   3.250   0.6145   0.00879   0.00355  -0.0514   0.4947   0.9825
   3.500   0.6560   0.00897   0.00366  -0.0543   0.4825   0.9865
   3.750   0.6958   0.00915   0.00378  -0.0568   0.4698   0.9919
   4.000   0.7398   0.00929   0.00389  -0.0603   0.4568   0.9961
   4.250   0.7826   0.00946   0.00400  -0.0636   0.4435   1.0000
   4.750   0.8242   0.00969   0.00416  -0.0609   0.4208   1.0000
   5.000   0.8448   0.00983   0.00426  -0.0595   0.4094   1.0000
   5.500   0.8858   0.01014   0.00450  -0.0567   0.3841   1.0000
   5.750   0.9063   0.01032   0.00463  -0.0552   0.3709   1.0000
   6.000   0.9264   0.01053   0.00478  -0.0537   0.3573   1.0000
   6.250   0.9462   0.01076   0.00496  -0.0522   0.3430   1.0000
   6.750   0.9860   0.01127   0.00535  -0.0491   0.3127   1.0000
   7.000   1.0059   0.01155   0.00558  -0.0476   0.2970   1.0000
   7.250   1.0259   0.01186   0.00582  -0.0462   0.2811   1.0000
   7.500   1.0458   0.01220   0.00609  -0.0447   0.2647   1.0000
   7.750   1.0656   0.01256   0.00639  -0.0433   0.2483   1.0000
   8.000   1.0852   0.01296   0.00671  -0.0419   0.2317   1.0000
   8.250   1.1046   0.01338   0.00706  -0.0405   0.2154   1.0000
   8.500   1.1235   0.01384   0.00744  -0.0390   0.1993   1.0000
   8.750   1.1420   0.01431   0.00784  -0.0375   0.1839   1.0000
   9.000   1.1600   0.01481   0.00827  -0.0360   0.1692   1.0000
   9.250   1.1773   0.01532   0.00872  -0.0343   0.1555   1.0000
   9.500   1.1929   0.01583   0.00919  -0.0323   0.1431   1.0000
   9.750   1.2079   0.01638   0.00969  -0.0303   0.1320   1.0000
  10.000   1.2224   0.01697   0.01024  -0.0283   0.1219   1.0000
  10.250   1.2363   0.01762   0.01085  -0.0263   0.1126   1.0000
  10.500   1.2501   0.01831   0.01150  -0.0243   0.1042   1.0000
  10.750   1.2648   0.01896   0.01216  -0.0226   0.0971   1.0000
  11.000   1.2773   0.01976   0.01293  -0.0207   0.0908   1.0000
  11.250   1.2906   0.02054   0.01371  -0.0190   0.0851   1.0000
  11.500   1.3029   0.02139   0.01458  -0.0172   0.0802   1.0000
  11.750   1.3146   0.02232   0.01551  -0.0155   0.0758   1.0000
  12.000   1.3253   0.02334   0.01655  -0.0138   0.0720   1.0000
  12.250   1.3368   0.02435   0.01760  -0.0124   0.0684   1.0000
  12.500   1.3436   0.02572   0.01897  -0.0106   0.0652   1.0000
  12.750   1.3559   0.02675   0.02007  -0.0094   0.0624   1.0000
  13.000   1.3639   0.02815   0.02148  -0.0081   0.0599   1.0000
  13.250   1.3687   0.02985   0.02322  -0.0067   0.0577   1.0000
  13.500   1.3787   0.03120   0.02465  -0.0058   0.0556   1.0000
  13.750   1.3854   0.03288   0.02637  -0.0048   0.0536   1.0000
  14.000   1.3861   0.03515   0.02866  -0.0038   0.0519   1.0000
  14.250   1.3929   0.03694   0.03055  -0.0031   0.0503   1.0000
  14.500   1.3989   0.03888   0.03257  -0.0026   0.0488   1.0000
  14.750   1.4020   0.04115   0.03489  -0.0021   0.0474   1.0000
  15.000   1.4003   0.04395   0.03773  -0.0017   0.0463   1.0000
  15.250   1.3997   0.04675   0.04061  -0.0015   0.0452   1.0000
  15.500   1.4035   0.04919   0.04315  -0.0015   0.0441   1.0000
  15.750   1.4051   0.05189   0.04593  -0.0016   0.0430   1.0000
  16.000   1.4050   0.05485   0.04896  -0.0018   0.0420   1.0000
  16.250   1.4016   0.05827   0.05242  -0.0022   0.0411   1.0000
  16.500   1.3943   0.06214   0.05634  -0.0026   0.0403   1.0000
  16.750   1.3953   0.06516   0.05948  -0.0031   0.0395   1.0000
  17.000   1.3944   0.06846   0.06288  -0.0037   0.0387   1.0000
  17.250   1.3924   0.07193   0.06644  -0.0044   0.0380   1.0000
  17.500   1.3897   0.07554   0.07012  -0.0053   0.0373   1.0000
  17.750   1.3858   0.07930   0.07395  -0.0062   0.0367   1.0000
  18.000   1.3801   0.08328   0.07797  -0.0071   0.0361   1.0000
  18.250   1.3743   0.08722   0.08194  -0.0080   0.0354   1.0000
  18.500   1.3719   0.09101   0.08586  -0.0092   0.0349   1.0000
  18.750   1.3688   0.09487   0.08983  -0.0104   0.0343   1.0000
  19.000   1.3651   0.09885   0.09390  -0.0117   0.0337   1.0000
  19.250   1.3615   0.10284   0.09796  -0.0131   0.0331   1.0000
